data_image0
_chemical_formula_structural       H66C21N9F54P9
_chemical_formula_sum              "H66 C21 N9 F54 P9"
_cell_length_a       10.547312379686764
_cell_length_b       10.550195943769445
_cell_length_c       15.285113298711483
_cell_angle_alpha    90.01098099088216
_cell_angle_beta     90.00233702209329
_cell_angle_gamma    120.00649833450701

_space_group_name_H-M_alt    "P 1"
_space_group_IT_number       1

loop_
  _space_group_symop_operation_xyz
  'x, y, z'

loop_
  _atom_site_type_symbol
  _atom_site_label
  _atom_site_symmetry_multiplicity
  _atom_site_fract_x
  _atom_site_fract_y
  _atom_site_fract_z
  _atom_site_occupancy
  H   H1        1.0  0.5119286219698341  0.6276696023873276  0.4982846280900573  1.0000
  H   H2        1.0  0.37239773385887404  0.8842634732956179  0.49829940804224493  1.0000
  H   H3        1.0  0.11571332402948317  0.48814553452768766  0.49826909910285194  1.0000
  H   H4        1.0  0.1785952889267174  0.9610029355265467  0.831617961510048  1.0000
  H   H5        1.0  0.03906440073560519  0.21759680731736036  0.8316327414365996  1.0000
  H   H6        1.0  0.7823799914330427  0.821478868637672  0.8316024327798166  1.0000
  H   H7        1.0  0.8452619559612198  0.29433626924839035  0.16495129532431158  1.0000
  H   H8        1.0  0.705731067850174  0.5509301401565475  0.16496607462226787  1.0000
  H   H9        1.0  0.44904665802078314  0.15481220138861715  0.1649357656828749  1.0000
  H   H10       1.0  0.5589187597124341  0.8141117011229095  0.48273141324950636  1.0000
  H   H11       1.0  0.18589272627779993  0.7447711529959957  0.4826979100346678  1.0000
  H   H12       1.0  0.2552398802503829  0.4412027195969921  0.48270109476579787  1.0000
  H   H13       1.0  0.22558542658916522  0.14744503514465193  0.8160647466438611  1.0000
  H   H14       1.0  0.8525593940018994  0.0781044868939648  0.8160312430316983  1.0000
  H   H15       1.0  0.9219065476538568  0.7745360537068434  0.8160344277885313  1.0000
  H   H16       1.0  0.8922520937038196  0.4807783679839721  0.1493980804837606  1.0000
  H   H17       1.0  0.5192260602690999  0.41143781985692524  0.14936457661469074  1.0000
  H   H18       1.0  0.588573214241683  0.10786938645792167  0.14936776134582083  1.0000
  H   H19       1.0  0.5649460022977486  0.7660008161665506  0.33218214499401283  1.0000
  H   H20       1.0  0.23396268979192067  0.7988571333456248  0.33217896514149464  1.0000
  H   H21       1.0  0.20107780718652987  0.4351117609139435  0.3321564294550432  1.0000
  H   H22       1.0  0.23161266917447978  0.09933415018829299  0.6655154783883676  1.0000
  H   H23       1.0  0.9006293560204313  0.13219046614889118  0.6655122981384309  1.0000
  H   H24       1.0  0.867744474042684  0.7684450939293739  0.6654897631319273  1.0000
  H   H25       1.0  0.8982793360306337  0.4326674832037232  0.9988488120652517  1.0000
  H   H26       1.0  0.5672960229773144  0.46552379928811016  0.9988456315584215  1.0000
  H   H27       1.0  0.5344111403720092  0.10177842685656198  0.9988230965262015  1.0000
  H   H28       1.0  0.46735362074781933  0.5723436455599702  0.3482216432747092  1.0000
  H   H29       1.0  0.4276914829243539  0.8949785495057478  0.34823325558730156  1.0000
  H   H30       1.0  0.10494319360154834  0.5326572638428925  0.34821873754717003  1.0000
  H   H31       1.0  0.13402028770470242  0.9056769786991892  0.6815549766946999  1.0000
  H   H32       1.0  0.09435814925367927  0.22831188243293585  0.6815665889815757  1.0000
  H   H33       1.0  0.7716098595094335  0.865990596858041  0.6815520705698092  1.0000
  H   H34       1.0  0.8006869547391193  0.23901031242089968  0.014888309854732194  1.0000
  H   H35       1.0  0.7610248159674707  0.5616452163665288  0.014899922167310932  1.0000
  H   H36       1.0  0.43827652664466527  0.19932393070367355  0.014885404127179407  1.0000
  H   H37       1.0  0.34845829186025606  0.5767605798513814  0.2107518506951739  1.0000
  H   H38       1.0  0.42323702448280653  0.7716844138132739  0.2107871552525144  1.0000
  H   H39       1.0  0.2282571151020456  0.6514984225889748  0.21077347557733864  1.0000
  H   H40       1.0  0.015124958817139267  0.9100939129906006  0.5440851841151645  1.0000
  H   H41       1.0  0.08990369135945202  0.10501774783488313  0.5441204879926379  1.0000
  H   H42       1.0  0.894923781958114  0.9848317556042719  0.5441068085999913  1.0000
  H   H43       1.0  0.6817916250456498  0.24342724579386668  0.8774185171121008  1.0000
  H   H44       1.0  0.7565703582156059  0.4383510808503134  0.877453821669522  1.0000
  H   H45       1.0  0.5615904482874393  0.3181650885314602  0.8774401419942656  1.0000
  H   H46       1.0  0.3333665665048272  0.6667522526829923  0.5650418732720586  1.0000
  H   H47       1.0  3.323378233575791e-05  8.558561032898833e-05  0.8983752066663463  1.0000
  H   H48       1.0  0.6666999004961273  0.3334189195439219  0.23170853985208145  1.0000
  H   H49       1.0  0.728591668399646  0.2912815331235446  0.5191569161745622  1.0000
  H   H50       1.0  0.7086573634288155  0.4371797642431904  0.5191092168585728  1.0000
  H   H51       1.0  0.5627111820571009  0.2713297184818814  0.5192133460485497  1.0000
  H   H52       1.0  0.395258334408346  0.6246148662626151  0.8524902495945392  1.0000
  H   H53       1.0  0.37532403038569856  0.7705130973824094  0.8524425502785634  1.0000
  H   H54       1.0  0.22937784901398414  0.6046630516211005  0.8525466794685405  1.0000
  H   H55       1.0  0.061925002171135425  0.9579482003202784  0.18582358317762585  1.0000
  H   H56       1.0  0.04199069602525582  0.1038464301332059  0.1857758831816081  1.0000
  H   H57       1.0  0.8960445157277757  0.9379963855546933  0.18588001265427562  1.0000
  H   H58       1.0  0.6735628797013969  0.28619676671614563  0.680060141779308  1.0000
  H   H59       1.0  0.7142585213880035  0.3881189326317985  0.6805628984377884  1.0000
  H   H60       1.0  0.6119992107082971  0.32651928852837236  0.6805744684361446  1.0000
  H   H61       1.0  0.3402295465160032  0.6195301007736603  0.013393475362380985  1.0000
  H   H62       1.0  0.3809251882025241  0.7214522666891799  0.01389623136663005  1.0000
  H   H63       1.0  0.2786658775229032  0.659852622585887  0.013907802019217744  1.0000
  H   H64       1.0  0.006896213472886413  0.9528634339128795  0.3467268087823716  1.0000
  H   H65       1.0  0.0475918545318496  0.05478559961636822  0.3472295647609042  1.0000
  H   H66       1.0  0.9453325443789715  0.9931859556011842  0.3472411350418705  1.0000
  C   C1        1.0  0.48179273186362853  0.7004870051584011  0.4648591145963745  1.0000
  C   C2        1.0  0.29955122346115215  0.7813073038543448  0.46485281824849145  1.0000
  C   C3        1.0  0.2186922015672719  0.5182817511294192  0.4648452448099733  1.0000
  C   C4        1.0  0.148459398192954  0.033820338085589416  0.7981924479906487  1.0000
  C   C5        1.0  0.9662178902370686  0.11464063775216543  0.7981861512455084  1.0000
  C   C6        1.0  0.8853588684233401  0.8516150841447162  0.7981785778326261  1.0000
  C   C7        1.0  0.8151260653075229  0.3671536709247765  0.1315257811763169  1.0000
  C   C8        1.0  0.6328845565042691  0.4479739707151259  0.13151948482850087  1.0000
  C   C9        1.0  0.5520255355585718  0.1849484179903486  0.1315119113899963  1.0000
  C   C10       1.0  0.4722046369967729  0.6754197559129521  0.3655546467827242  1.0000
  C   C11       1.0  0.32458659075370955  0.7967508524377026  0.365552497377976  1.0000
  C   C12       1.0  0.20320599075687124  0.5278250785545  0.36554150080461495  1.0000
  C   C13       1.0  0.1388713038734184  0.008753089934561378  0.6988879795228476  1.0000
  C   C14       1.0  0.9912532575297115  0.13008418633565633  0.6988858310292243  1.0000
  C   C15       1.0  0.8698726572121622  0.8611584126642029  0.6988748338273347  1.0000
  C   C16       1.0  0.8055379700398899  0.3420864227737332  0.03222131336273356  1.0000
  C   C17       1.0  0.6579199247450952  0.46341751929876535  0.0322191646122303  1.0000
  C   C18       1.0  0.5365393237999881  0.19449174541528105  0.03220816738462435  1.0000
  C   C19       1.0  0.33331900523498714  0.6666444266079024  0.23348874183841267  1.0000
  C   C20       1.0  0.9999856716902781  0.9999777607176051  0.5668220748611325  1.0000
  C   C21       1.0  0.6666523380196036  0.33331109364479344  0.9001554082554066  1.0000
  N   N1        1.0  0.33335008938653005  0.6667056469697787  0.49718510056905196  1.0000
  N   N2        1.0  1.6755715855507817e-05  3.89798969670009e-05  0.8305184339633263  1.0000
  N   N3        1.0  0.66668342337783  0.3333723138307083  0.16385176714907496  1.0000
  N   N4        1.0  0.3333302443935341  0.6666599452079076  0.3313330423922542  1.0000
  N   N5        1.0  0.9999969112496879  0.9999932782233377  0.6646663760691383  1.0000
  N   N6        1.0  0.6666635781264192  0.33332661224508026  0.9979997094634929  1.0000
  N   N7        1.0  0.6666139430672876  0.3332263117873705  0.4965861208773686  1.0000
  N   N8        1.0  0.3332806090759876  0.666559644926441  0.8299194542973457  1.0000
  N   N9        1.0  0.9999472767379621  0.9998929788601825  0.16325278748309444  1.0000
  F   F1        1.0  0.5640599791497195  0.5502264880500415  0.7662156571141342  1.0000
  F   F2        1.0  0.4498758757985645  0.013796557946252638  0.7662472421317622  1.0000
  F   F3        1.0  0.9861435143742022  0.43598051936217375  0.766207478246836  1.0000
  F   F4        1.0  0.23072664541683433  0.8835598210128688  0.09954899004289534  1.0000
  F   F5        1.0  0.11654254206567938  0.3471298909090799  0.09958057506052331  1.0000
  F   F6        1.0  0.652810180641317  0.769313852325001  0.09954081117559714  1.0000
  F   F7        1.0  0.8973933131410193  0.216893154910971  0.43288232369415713  1.0000
  F   F8        1.0  0.7832092085210558  0.6804632250189159  0.43291390873747443  1.0000
  F   F9        1.0  0.3194768475180482  0.1026471863467435  0.4328741445699519  1.0000
  F   F10       1.0  0.44384302046901936  0.6070479154845697  0.6583498596955369  1.0000
  F   F11       1.0  0.3928931059606597  0.8368623730579557  0.6583162394284097  1.0000
  F   F12       1.0  0.16324377666279039  0.5561429315817958  0.6583720124016733  1.0000
  F   F13       1.0  0.11050968647771935  0.9403812486236401  0.991683193115514  1.0000
  F   F14       1.0  0.059559772289899546  0.17019570598501085  0.9916495721684526  1.0000
  F   F15       1.0  0.8299104435188585  0.8894762645970927  0.991705345424326  1.0000
  F   F16       1.0  0.7771763535121362  0.2737145823453508  0.32501652627554634  1.0000
  F   F17       1.0  0.7262264394045541  0.5035290388243311  0.324982906008352  1.0000
  F   F18       1.0  0.4965771097059073  0.22280959844257692  0.32503867898168265  1.0000
  F   F19       1.0  0.34224998004250934  0.3692086400778147  0.605281060807115  1.0000
  F   F20       1.0  0.6307587896131354  0.972862633827482  0.6052660761666897  1.0000
  F   F21       1.0  0.02694937699496194  0.6576610364230507  0.6052940800424481  1.0000
  F   F22       1.0  0.008916646051123673  0.7025419732167519  0.9386143935728607  1.0000
  F   F23       1.0  0.29742545648986657  0.3061959678492244  0.9385994095610445  1.0000
  F   F24       1.0  0.6936160434503386  0.9909943705328869  0.9386274137193993  1.0000
  F   F25       1.0  0.6755833130856262  0.03587530693859573  0.2719477273871244  1.0000
  F   F26       1.0  0.9640921226563379  0.6395293006883962  0.2719327434009305  1.0000
  F   F27       1.0  0.3602827100380788  0.3243277032838318  0.2719607466224575  1.0000
  F   F28       1.0  0.4639894021240953  0.3127389654578474  0.7114780521488954  1.0000
  F   F29       1.0  0.6873595738144006  0.15098057897022643  0.7114936259615653  1.0000
  F   F30       1.0  0.8486846394208809  0.5360245754844906  0.7114608744026657  1.0000
  F   F31       1.0  0.13065606893861587  0.6460722995152289  0.04481138507773704  1.0000
  F   F32       1.0  0.35402624008151545  0.4843139119330538  0.04482695889032645  1.0000
  F   F33       1.0  0.5153513056879957  0.8693579084473178  0.04479420733142671  1.0000
  F   F34       1.0  0.7973227348465868  0.9794056325305108  0.37814471875460753  1.0000
  F   F35       1.0  0.02069290703839859  0.8176472450722727  0.37816029231031706  1.0000
  F   F36       1.0  0.1820179720173212  0.20269124137450598  0.3781275407257009  1.0000
  F   F37       1.0  0.31335846236909265  0.4034285006459209  0.7507356769507963  1.0000
  F   F38       1.0  0.5964643994555475  0.9096589932789404  0.750717693534795  1.0000
  F   F39       1.0  0.09003801242283709  0.6866019968623461  0.750756650319688  1.0000
  F   F40       1.0  0.9800251285355641  0.7367618334850928  0.08406901079068237  1.0000
  F   F41       1.0  0.2631310650951904  0.24299232602987006  0.08405102709207106  1.0000
  F   F42       1.0  0.7567046794572541  0.019935330584056755  0.08408998347972037  1.0000
  F   F43       1.0  0.6466917958130726  0.07009516641242935  0.4174023441849701  1.0000
  F   F44       1.0  0.9297977324987501  0.5763256601398545  0.41738436076903573  1.0000
  F   F45       1.0  0.42337134641413704  0.3532686637232757  0.417423316899711  1.0000
  F   F46       1.0  0.593376817025047  0.5147233809482752  0.6207472228769566  1.0000
  F   F47       1.0  0.4854137050276865  0.07867930532992087  0.6207561417821935  1.0000
  F   F48       1.0  0.9213500312499399  0.4066217066856738  0.6207307276837853  1.0000
  F   F49       1.0  0.26004348398193017  0.8480567140874942  0.9540805562969472  1.0000
  F   F50       1.0  0.15208037103638652  0.4120126384689914  0.9540894752021706  1.0000
  F   F51       1.0  0.588016698206823  0.7399550398248927  0.954064061103776  1.0000
  F   F52       1.0  0.9267101510163471  0.18139004780920467  0.28741388945697965  1.0000
  F   F53       1.0  0.8187470381509555  0.7453459713081785  0.28742280838783874  1.0000
  F   F54       1.0  0.25468336439387157  0.07328837367037676  0.2873973946611326  1.0000
  P   P1        1.0  0.4523415624687222  0.4644291681234958  0.6856789031668244  1.0000
  P   P2        1.0  0.5357223581009926  0.9879611141948524  0.6856999641282028  1.0000
  P   P3        1.0  0.012061292688426673  0.5476295143818477  0.6856798614695159  1.0000
  P   P4        1.0  0.11900822873592273  0.7977625010864562  0.01901223674981689  1.0000
  P   P5        1.0  0.20238902428804115  0.3212944480403364  0.019033297685559437  1.0000
  P   P6        1.0  0.6787279588548124  0.8809628472208864  0.019013194655170415  1.0000
  P   P7        1.0  0.785674895511839  0.13109583498427682  0.3523455697468338  1.0000
  P   P8        1.0  0.8690556911441951  0.6546277810557667  0.35236663136244356  1.0000
  P   P9        1.0  0.34539462573154367  0.2142961812426289  0.3523465280495252  1.0000
