data_image0
_chemical_formula_structural       H68C52N6O12S6Br2
_chemical_formula_sum              "H68 C52 N6 O12 S6 Br2"
_cell_length_a       9.729080314422456
_cell_length_b       11.966389687277186
_cell_length_c       13.84037447170498
_cell_angle_alpha    105.44189128090488
_cell_angle_beta     98.73143170589661
_cell_angle_gamma    98.95071001022646

_space_group_name_H-M_alt    "P 1"
_space_group_IT_number       1

loop_
  _space_group_symop_operation_xyz
  'x, y, z'

loop_
  _atom_site_type_symbol
  _atom_site_label
  _atom_site_symmetry_multiplicity
  _atom_site_fract_x
  _atom_site_fract_y
  _atom_site_fract_z
  _atom_site_occupancy
  H   H1        1.0  0.5751585401878185  0.5417801573867702  0.15210525915276074  1.0000
  H   H2        1.0  0.4248414604029348  0.45821984231046275  0.8478947411714585  1.0000
  H   H3        1.0  0.540868954716018  0.34809375957440813  0.18456459606493097  1.0000
  H   H4        1.0  0.4591310456592243  0.6519062398550045  0.8154354034937891  1.0000
  H   H5        1.0  0.9868976166089587  0.4149155233575135  0.3214372133206477  1.0000
  H   H6        1.0  0.01310238393512447  0.5850844769163441  0.6785627862337348  1.0000
  H   H7        1.0  0.01780804949529931  0.6137829663944986  0.29557380178228193  1.0000
  H   H8        1.0  0.982191950022028  0.38621703388580736  0.7044261977712833  1.0000
  H   H9        1.0  0.933203034659187  0.7361154782278588  0.1960481557267698  1.0000
  H   H10       1.0  0.06679696468929963  0.2638845212080021  0.803951843831133  1.0000
  H   H11       1.0  0.9879508480568872  0.5346780350025961  0.9150963570941348  1.0000
  H   H12       1.0  0.01204915146044017  0.4653219652777098  0.08490364245943055  1.0000
  H   H13       1.0  0.8514679979695171  0.5863493949370971  0.8479353084908382  1.0000
  H   H14       1.0  0.14853200279007697  0.4136506056045808  0.15206469182904347  1.0000
  H   H15       1.0  0.8068948066099094  0.36623187410373365  0.9247121019665211  1.0000
  H   H16       1.0  0.19310519376533297  0.6337681253256789  0.07528789759219878  1.0000
  H   H17       1.0  0.8021817687764321  0.36467234155399564  0.7954130754797799  1.0000
  H   H18       1.0  0.19781823078756539  0.6353276581496856  0.20458692484362218  1.0000
  H   H19       1.0  0.6695394411906844  0.41784461268353446  0.8592067506167426  1.0000
  H   H20       1.0  0.3304605581578022  0.5821553867523266  0.14079324894116044  1.0000
  H   H21       1.0  0.8042720593660954  0.7887431920422684  0.36200655970725865  1.0000
  H   H22       1.0  0.19572794036674296  0.21125680850585804  0.637993440611806  1.0000
  H   H23       1.0  0.0894349113343971  0.3672705458708334  0.5303758751902619  1.0000
  H   H24       1.0  0.9105650882296006  0.632729453832848  0.4696241251331402  1.0000
  H   H25       1.0  0.24714581826774842  0.5565163394819029  0.5451075748829812  1.0000
  H   H26       1.0  0.752854181249579  0.4434836607984031  0.45489242467058416  1.0000
  H   H27       1.0  0.38702107599292823  0.6806804045822215  0.4681424825652213  1.0000
  H   H28       1.0  0.6129789235243992  0.31931959569808466  0.531857516988344  1.0000
  H   H29       1.0  0.4185717053013084  0.6242257281871523  0.34243708129012645  1.0000
  H   H30       1.0  0.5814282942160189  0.37577427209315367  0.6575629182634389  1.0000
  H   H31       1.0  0.5276280579805007  0.6045634972487379  0.44844420548937697  1.0000
  H   H32       1.0  0.47237194277909333  0.39543650329293994  0.5515557948305048  1.0000
  H   H33       1.0  0.3605399853423561  0.3982566954918106  0.25857697640764  1.0000
  H   H34       1.0  0.6394600154172381  0.6017433050498674  0.7414230239122417  1.0000
  H   H35       1.0  0.20442873848669602  0.20893331692563372  0.24400069507409422  1.0000
  H   H36       1.0  0.7955712622728981  0.7910666836160443  0.7559993052457876  1.0000
  H   H37       1.0  0.40985066382719004  0.856820318567443  0.39973357498051554  1.0000
  H   H38       1.0  0.5901493357368074  0.14317968113623816  0.6002664253428867  1.0000
  H   H39       1.0  0.2939712346551189  0.8348804181794616  0.27799751676250417  1.0000
  H   H40       1.0  0.7060287646933676  0.1651195812563995  0.7220024827953987  1.0000
  H   H41       1.0  0.21828225926181724  0.8211048630036235  0.387086955647805  1.0000
  H   H42       1.0  0.781717741328936  0.1788951366936095  0.6129130446764142  1.0000
  H   H43       1.0  0.46479618366721964  0.1762604635538388  0.38613425517465866  1.0000
  H   H44       1.0  0.5352038160656187  0.8237395369942875  0.613865745144406  1.0000
  H   H45       1.0  0.4492765452821083  0.04389160858805275  0.282542306616268  1.0000
  H   H46       1.0  0.5507234554774858  0.9561083919536253  0.7174576937036138  1.0000
  H   H47       1.0  0.546602111039336  0.05646900694429196  0.4086365770251428  1.0000
  H   H48       1.0  0.4533978895514173  0.9435309927529408  0.5913634232990764  1.0000
  H   H49       1.0  0.3714174103769289  0.09167368678966442  0.03553156650707757  1.0000
  H   H50       1.0  0.6285825903826653  0.9083263137520136  0.9644684338128041  1.0000
  H   H51       1.0  0.20840894031590376  0.05513265139679458  0.9434275236539801  1.0000
  H   H52       1.0  0.7915910592480938  0.9448673483068868  0.0565724766694221  1.0000
  H   H53       1.0  0.32391055294854365  0.9506024256282046  0.9367874691077587  1.0000
  H   H54       1.0  0.6760894474266986  0.049397573801207934  0.06321253045096135  1.0000
  H   H55       1.0  0.1306342993804035  0.7807514281080007  0.9341001171570832  1.0000
  H   H56       1.0  0.869365699968083  0.21924857132786027  0.06589988240081962  1.0000
  H   H57       1.0  0.0001376913093688982  0.8723899241157029  0.9337861059429325  1.0000
  H   H58       1.0  0.9998623082079584  0.1276100761646031  0.06621389361063275  1.0000
  H   H59       1.0  0.013731869355113079  0.7891662734872822  0.024417370767182298  1.0000
  H   H60       1.0  0.9862681302088844  0.21083372621639915  0.9755826295562198  1.0000
  H   H61       1.0  0.49364603919069056  0.7195241784971903  0.9801350453402576  1.0000
  H   H62       1.0  0.5063539601577961  0.28047582093867063  0.019864954217645305  1.0000
  H   H63       1.0  0.4179875385228243  0.8096760168460666  0.07491938873114891  1.0000
  H   H64       1.0  0.5820124610411733  0.19032398285761468  0.9250806115922532  1.0000
  H   H65       1.0  0.8234680359388672  0.9876503301857373  0.4408686360673778  1.0000
  H   H66       1.0  0.17653196379397115  0.012349670362388836  0.5591313642516869  1.0000
  H   H67       1.0  0.04194679339072291  0.09913011935241903  0.30425171222252306  1.0000
  H   H68       1.0  0.9580532072000305  0.9008698803448139  0.6957482881016961  1.0000
  C   C1        1.0  0.6657449956546475  0.5158733129799031  0.19062364838120782  1.0000
  C   C2        1.0  0.334255003693839  0.48412668645595786  0.8093763511766952  1.0000
  C   C3        1.0  0.6459952691799751  0.4051906706603759  0.2072864588938018  1.0000
  C   C4        1.0  0.3540047305528632  0.5948093298877506  0.7927135414252627  1.0000
  C   C5        1.0  0.7622207497196795  0.369599977335203  0.25299204635539674  1.0000
  C   C6        1.0  0.23777925001315903  0.6304000232129234  0.7470079539636679  1.0000
  C   C7        1.0  0.8969022159843671  0.44303041804757476  0.2847557771048384  1.0000
  C   C8        1.0  0.10309778460638624  0.5569695816496583  0.7152442232193809  1.0000
  C   C9        1.0  0.9134265534106253  0.5546870762453165  0.2692121202254156  1.0000
  C   C10       1.0  0.08657344610670215  0.4453129240349894  0.7307878793281498  1.0000
  C   C11       1.0  0.7994618399858978  0.5919042439098304  0.22092347879127658  1.0000
  C   C12       1.0  0.2005381606048555  0.40809575578740254  0.7790765215329427  1.0000
  C   C13       1.0  0.8213425785971191  0.7117128201392372  0.20106131760912857  1.0000
  C   C14       1.0  0.17865742199363424  0.2882871795579957  0.7989386827150907  1.0000
  C   C15       1.0  0.7237580624401785  0.7124132895672803  0.10554105260813423  1.0000
  C   C16       1.0  0.2762419383194157  0.28758671097439764  0.8944589477117475  1.0000
  C   C17       1.0  0.7387629937466658  0.6557525584420357  0.004151847380704897  1.0000
  C   C18       1.0  0.2612370059861726  0.34424744210609065  0.9958481529383597  1.0000
  C   C19       1.0  0.8748947456770888  0.5380744462740208  0.903632640196222  1.0000
  C   C20       1.0  0.1251052546981535  0.46192555315539185  0.09636735936249792  1.0000
  C   C21       1.0  0.7827477824766663  0.41463202946435873  0.8692013407629353  1.0000
  C   C22       1.0  0.21725221687182011  0.5853679699715023  0.13079865879496766  1.0000
  C   C23       1.0  0.6068850245125866  0.7622679559846333  0.12357119679739625  1.0000
  C   C24       1.0  0.39311497500474074  0.2377320442956728  0.8764288027561691  1.0000
  C   C25       1.0  0.7936936498715849  0.8102198797084168  0.2893479872518404  1.0000
  C   C26       1.0  0.2063063496457425  0.18978012057188928  0.7106520123017249  1.0000
  C   C27       1.0  0.8885894947682721  0.9302316291476957  0.3041901636219432  1.0000
  C   C28       1.0  0.11141050582248105  0.06976837054953723  0.6958098367022759  1.0000
  C   C29       1.0  0.9694622379893968  0.130296209010556  0.43474471656027425  1.0000
  C   C30       1.0  0.030537762601356627  0.8697037906866769  0.565255283763945  1.0000
  C   C31       1.0  0.1382631758711507  0.27456616792968785  0.38725650125791033  1.0000
  C   C32       1.0  0.8617368238616877  0.7254338326184384  0.6127434990611541  1.0000
  C   C33       1.0  0.15062477408021527  0.37366352914971274  0.47201042986941055  1.0000
  C   C34       1.0  0.8493752264638679  0.6263364711241448  0.527989569684972  1.0000
  C   C35       1.0  0.23976127081249435  0.48005179185581737  0.4792626026686869  1.0000
  C   C36       1.0  0.7602387287515031  0.5199482078478639  0.5207373976547152  1.0000
  C   C37       1.0  0.3188495244963189  0.49175976294657286  0.40463890595527663  1.0000
  C   C38       1.0  0.6811504760944345  0.5082402367506601  0.5953610943689426  1.0000
  C   C39       1.0  0.4176066066203626  0.6063244892020144  0.41618991276854234  1.0000
  C   C40       1.0  0.582393393112476  0.39367551134611184  0.5838100875505222  1.0000
  C   C41       1.0  0.3043092571891489  0.392112905206366  0.31993371700090373  1.0000
  C   C42       1.0  0.6956907435704452  0.6078870953353119  0.6800662833189781  1.0000
  C   C43       1.0  0.21569643099882999  0.28521069881396843  0.3110938014562124  1.0000
  C   C44       1.0  0.7843035685651675  0.7147893008897128  0.6889061988671897  1.0000
  C   C45       1.0  0.3068523677180514  0.8659144224722815  0.36149805982830324  1.0000
  C   C46       1.0  0.693147631799276  0.1340855778080245  0.6385019397252621  1.0000
  C   C47       1.0  0.4574783403011818  0.08027281270238243  0.36527743747201763  1.0000
  C   C48       1.0  0.5425216602429014  0.9197271875714753  0.6347225620823649  1.0000
  C   C49       1.0  0.28409934629133465  0.01940316942281417  0.98813151213993  1.0000
  C   C50       1.0  0.7159006534415038  0.9805968311253122  0.011868488179134672  1.0000
  C   C51       1.0  0.07280324786657091  0.8376352379595331  0.9815785577611817  1.0000
  C   C52       1.0  0.9271967518662676  0.16236476258859323  0.018421442557882813  1.0000
  N   N1        1.0  0.4950363957205848  0.7631274194346475  0.0544427645952678  1.0000
  N   N2        1.0  0.5049636038434128  0.23687258026903382  0.9455572357281342  1.0000
  N   N3        1.0  0.8918185410088936  0.012253291569831761  0.39506396503003294  1.0000
  N   N4        1.0  0.10818145855510386  0.9877467081338497  0.6049360352933691  1.0000
  N   N5        1.0  0.04927583988180321  0.1650042525299281  0.37157849221580946  1.0000
  N   N6        1.0  0.9507241596821943  0.8349957471737532  0.6284215081075927  1.0000
  O   O1        1.0  0.8562757824034859  0.605404475781843  0.003186114308033746  1.0000
  O   O2        1.0  0.1437242173293524  0.3945955247662834  0.9968138860110307  1.0000
  O   O3        1.0  0.6577841083637112  0.6512401571658922  0.9234503185204974  1.0000
  O   O4        1.0  0.3422158923958829  0.34875984337578575  0.07654968179938434  1.0000
  O   O5        1.0  0.9551719813888289  0.9491219751254971  0.23815967065800975  1.0000
  O   O6        1.0  0.04482801834400947  0.050878025422629224  0.7618403296610549  1.0000
  O   O7        1.0  0.9605472724846167  0.1901785510526075  0.5208378284426968  1.0000
  O   O8        1.0  0.03945272703271079  0.8098214492276986  0.4791621711108686  1.0000
  O   O9        1.0  0.31603872464019245  0.06188543456632568  0.5110448394890189  1.0000
  O   O10       1.0  0.6839612749238052  0.9381145651373556  0.4889551608343832  1.0000
  O   O11       1.0  0.30465803915203626  0.9048797479950634  0.1288991980959604  1.0000
  O   O12       1.0  0.6953419616075578  0.0951202525466144  0.8711008022239213  1.0000
  S   S1        1.0  0.6084975075472746  0.8235096196311602  0.2537427002640919  1.0000
  S   S2        1.0  0.39150249282796756  0.17649037979825227  0.746257299294628  1.0000
  S   S3        1.0  0.2945500162758649  0.01890112695801259  0.3944014798782852  1.0000
  S   S4        1.0  0.7054499832414625  0.9810988733222935  0.6055985196752803  1.0000
  S   S5        1.0  0.1979373836497191  0.9594316427969736  0.07475823872867801  1.0000
  S   S6        1.0  0.8020626156987674  0.040568356638887346  0.9252417608292247  1.0000
  Br  Br1       1.0  0.7313416429253158  0.21556890746561097  0.27168976213790175  1.0000
  Br  Br2       1.0  0.26865835663868187  0.7844310922380704  0.7283102381855004  1.0000
