data_image0
_chemical_formula_structural       H52C52O10P2
_chemical_formula_sum              "H52 C52 O10 P2"
_cell_length_a       8.787084853847642
_cell_length_b       11.710415222673403
_cell_length_c       12.487318276579844
_cell_angle_alpha    65.04417041417422
_cell_angle_beta     86.39713851163908
_cell_angle_gamma    71.08873954839454

_space_group_name_H-M_alt    "P 1"
_space_group_IT_number       1

loop_
  _space_group_symop_operation_xyz
  'x, y, z'

loop_
  _atom_site_type_symbol
  _atom_site_label
  _atom_site_symmetry_multiplicity
  _atom_site_fract_x
  _atom_site_fract_y
  _atom_site_fract_z
  _atom_site_occupancy
  H   H1        1.0  0.46053524352414654  0.0461722360569344  0.6044272839606587  1.0000
  H   H2        1.0  0.5394647565841082  0.9538277642755151  0.3955727163059845  1.0000
  H   H3        1.0  0.7252049872581214  0.008204963962638114  0.5226770531013956  1.0000
  H   H4        1.0  0.27479501275134915  0.9917950367904185  0.4773229462786804  1.0000
  H   H5        1.0  0.9516509154686523  0.7982804607467977  0.6301504769108504  1.0000
  H   H6        1.0  0.048349084943339754  0.20171953910196022  0.3698495224727644  1.0000
  H   H7        1.0  0.9089249261142132  0.6228933668504376  0.8201327620229822  1.0000
  H   H8        1.0  0.09107507316368216  0.37710663298996205  0.1798672373577764  1.0000
  H   H9        1.0  0.6418958523472177  0.6533071308811405  0.8955141190759865  1.0000
  H   H10       1.0  0.35810414662694046  0.3466928694429507  0.10448588118780064  1.0000
  H   H11       1.0  0.5647999603183114  0.7115557306077921  0.02761825378798333  1.0000
  H   H12       1.0  0.43520004019246517  0.2884442688203584  0.9723817464821989  1.0000
  H   H13       1.0  0.5581314382326873  0.7087505566850418  0.2281227641624702  1.0000
  H   H14       1.0  0.4418685621793048  0.2912494431637159  0.7718772352211447  1.0000
  H   H15       1.0  0.3446260599389049  0.8780685954529768  0.2689656833802405  1.0000
  H   H16       1.0  0.655373938936469  0.12193140529172149  0.7310343159969794  1.0000
  H   H17       1.0  0.13256884036295763  0.05634012664630719  0.10822719746603421  1.0000
  H   H18       1.0  0.8674311585124161  0.9436598740983912  0.8917728019111857  1.0000
  H   H19       1.0  0.1303254548338731  0.05460580758197312  0.9112259693450949  1.0000
  H   H20       1.0  0.8696745445428068  0.9453941918378191  0.08877403092223116  1.0000
  H   H21       1.0  0.04259523881404602  0.9327678352230311  0.6840314996468396  1.0000
  H   H22       1.0  0.9574047611954247  0.06723216553002548  0.3159684997332364  1.0000
  H   H23       1.0  0.8343833655586478  0.14426994587031616  0.5536455649868585  1.0000
  H   H24       1.0  0.1656166338180319  0.8557300535494763  0.4463544352804676  1.0000
  H   H25       1.0  0.8618394690554863  0.3621049056226153  0.5163320119648177  1.0000
  H   H26       1.0  0.1381605314552902  0.6378950938055354  0.4836679883053644  1.0000
  H   H27       1.0  0.10678855982886386  0.36719644131177304  0.6041566236045733  1.0000
  H   H28       1.0  0.8932114406819124  0.6328035581163776  0.3958433766656088  1.0000
  H   H29       1.0  0.3158884621796723  0.15819864895004782  0.7304801468908606  1.0000
  H   H30       1.0  0.6841115371970073  0.8418013504697447  0.2695198533764654  1.0000
  H   H31       1.0  0.22044268760932656  0.5285640843688673  0.8196272542586445  1.0000
  H   H32       1.0  0.779557312400144  0.4714359163841893  0.18037274512143145  1.0000
  H   H33       1.0  0.37213240545354714  0.5169702446880726  0.7193858657604343  1.0000
  H   H34       1.0  0.6278675939231326  0.48302975473171983  0.2806141345068918  1.0000
  H   H35       1.0  0.17535786372218237  0.6211054047066322  0.6623258122287925  1.0000
  H   H36       1.0  0.8246421363860725  0.3788945956258171  0.33767418803785076  1.0000
  H   H37       1.0  0.1595633739035686  0.5853455142592268  0.14951511421076666  1.0000
  H   H38       1.0  0.8404366262046862  0.41465448607322264  0.8504848860558765  1.0000
  H   H39       1.0  0.07162686007635917  0.7445178191948034  0.15350525365584808  1.0000
  H   H40       1.0  0.9283731400318959  0.2554821811376461  0.8464947466107952  1.0000
  H   H41       1.0  0.8868827947201101  0.6273823692890624  0.04328216094234337  1.0000
  H   H42       1.0  0.11311720538814476  0.372617631043387  0.9567178393242999  1.0000
  H   H43       1.0  0.8062386638494146  0.7222767152958687  0.13503533788126054  1.0000
  H   H44       1.0  0.19376133666136172  0.2777232841322819  0.8649646623889218  1.0000
  H   H45       1.0  0.4192798147099238  0.7244224335636981  0.5497177594551348  1.0000
  H   H46       1.0  0.5807201842642343  0.27557756676039324  0.4502822408086523  1.0000
  H   H47       1.0  0.8089433639881535  0.48804800418328925  0.6287824256704029  1.0000
  H   H48       1.0  0.19105663652262272  0.5119519952448616  0.3712175745997792  1.0000
  H   H49       1.0  0.6212123269125068  0.48208842459751006  0.6881410881117487  1.0000
  H   H50       1.0  0.37878767349948517  0.5179115752512478  0.31185891127186627  1.0000
  H   H51       1.0  0.676621911094629  0.6260444580434552  0.6531672581084494  1.0000
  H   H52       1.0  0.323378089013626  0.37395554228899425  0.3468327421581938  1.0000
  C   C1        1.0  0.533666037953825  0.8550783567665603  0.7579257597851751  1.0000
  C   C2        1.0  0.4663339625569513  0.14492164266159036  0.24207424048500711  1.0000
  C   C3        1.0  0.5587413908463463  0.9542061191427509  0.6528839693125216  1.0000
  C   C4        1.0  0.44125860966443015  0.04579388028539977  0.3471160309576606  1.0000
  C   C5        1.0  0.7090252677700426  0.9328672019392126  0.6071089598100637  1.0000
  C   C6        1.0  0.2909747322394279  0.06713279881384394  0.3928910395700122  1.0000
  C   C7        1.0  0.8355365730332281  0.8145458879893704  0.6674690905328622  1.0000
  C   C8        1.0  0.16446342707502687  0.18545411234307893  0.33253090973378113  1.0000
  C   C9        1.0  0.8115164614351802  0.7163451522506509  0.7730534159722906  1.0000
  C   C10       1.0  0.18848353897681192  0.2836548475981069  0.22694658341132437  1.0000
  C   C11       1.0  0.6600733405194797  0.7352106458775363  0.8174240826358661  1.0000
  C   C12       1.0  0.33992665999129684  0.26478935355061434  0.18257591763431602  1.0000
  C   C13       1.0  0.3480859387472554  0.884428590141043  0.9550925239742026  1.0000
  C   C14       1.0  0.6519140616647365  0.11557140970771503  0.0449074754094122  1.0000
  C   C15       1.0  0.46996867552172333  0.7875667503416515  0.04428265641691068  1.0000
  C   C16       1.0  0.5300313245865315  0.21243324999079802  0.9557173438497325  1.0000
  C   C17       1.0  0.4676172435229222  0.7862953086277115  0.15658824270659685  1.0000
  C   C18       1.0  0.5323827554512359  0.21370469169637973  0.8434117575571902  1.0000
  C   C19       1.0  0.34625537596343936  0.8823154990092187  0.1801428501109681  1.0000
  C   C20       1.0  0.6537446245473371  0.11768450041893198  0.8198571501592141  1.0000
  C   C21       1.0  0.22736457073380614  0.9807801989865568  0.09082814707467027  1.0000
  C   C22       1.0  0.7726354281415677  0.01921980175814144  0.9091718523025496  1.0000
  C   C23       1.0  0.22721778088088956  0.981201036738103  0.9789750458014116  1.0000
  C   C24       1.0  0.7727822195311025  0.01879896311065485  0.02102495358220332  1.0000
  C   C25       1.0  0.19299443938368585  0.03115969275611088  0.7149526689841741  1.0000
  C   C26       1.0  0.807005560724569  0.9688403075763387  0.2850473312824692  1.0000
  C   C27       1.0  0.05700475017190537  0.02828048733297994  0.664720654937707  1.0000
  C   C28       1.0  0.9429952503388709  0.9717195120951708  0.33527934533247516  1.0000
  C   C29       1.0  0.9396998700745273  0.14707546933979174  0.5924381367570883  1.0000
  C   C30       1.0  0.06030013003372747  0.8529245309926577  0.40756186350955487  1.0000
  C   C31       1.0  0.9558878310551973  0.2693802041733491  0.5708911152830444  1.0000
  C   C32       1.0  0.044112169053057634  0.7306197961591003  0.42910888498359895  1.0000
  C   C33       1.0  0.0916444284609172  0.2726560794211912  0.620547008239199  1.0000
  C   C34       1.0  0.9083555720498593  0.7273439200069595  0.37945299203098326  1.0000
  C   C35       1.0  0.21083652701114036  0.15420003547292876  0.6919511675554242  1.0000
  C   C36       1.0  0.7891634730971147  0.8457999648595208  0.308048832711219  1.0000
  C   C37       1.0  0.20614490914044964  0.667866844748529  0.9389673007969609  1.0000
  C   C38       1.0  0.7938550897349245  0.33213315599616927  0.061032698580259  1.0000
  C   C39       1.0  0.27958964823374277  0.7354760469978833  0.8336512339968339  1.0000
  C   C40       1.0  0.7204103521782492  0.2645239528508746  0.16634876538678078  1.0000
  C   C41       1.0  0.30272147661356147  0.7008942172178461  0.7363813506032016  1.0000
  C   C42       1.0  0.6972785234946934  0.29910578311460356  0.26361864966344156  1.0000
  C   C43       1.0  0.2645680263546963  0.5845382146143673  0.7369954282032446  1.0000
  C   C44       1.0  0.7354319737535588  0.415461785718082  0.2630045720633986  1.0000
  C   C45       1.0  0.0669028505734837  0.6848078835883689  0.10654127104351327  1.0000
  C   C46       1.0  0.9330971494359868  0.3151921171646878  0.8934587283365627  1.0000
  C   C47       1.0  0.9072105098617551  0.6762140692886808  0.0956912123412548  1.0000
  C   C48       1.0  0.09278949064902121  0.3237859301394699  0.9043087879289273  1.0000
  C   C49       1.0  0.6014927888095383  0.6065608274060569  0.5020428736537628  1.0000
  C   C50       1.0  0.39850721129871686  0.39343917292639247  0.4979571266128805  1.0000
  C   C51       1.0  0.682853173385261  0.5477361876101254  0.6251734566055628  1.0000
  C   C52       1.0  0.31714682672299416  0.45226381272232397  0.3748265436610804  1.0000
  O   O1        1.0  0.21224762402165406  0.5499861529734981  0.9816419231575354  1.0000
  O   O2        1.0  0.7877523760866009  0.4500138473589513  0.018358077109107886  1.0000
  O   O3        1.0  0.35133931676916585  0.7742786891534508  0.6414275080505689  1.0000
  O   O4        1.0  0.6486606825087295  0.22572131068694862  0.3585724913301898  1.0000
  O   O5        1.0  0.12280894551505306  0.7512908089596975  0.988436783974604  1.0000
  O   O6        1.0  0.8771910533603208  0.24870919178500103  0.011563215402615705  1.0000
  O   O7        1.0  0.6615005453891174  0.5692779322434807  0.4255409888028471  1.0000
  O   O8        1.0  0.338499455121659  0.4307220671846699  0.5744590114673352  1.0000
  O   O9        1.0  0.4594616970714473  0.7031434831490049  0.4779045197785809  1.0000
  O   O10       1.0  0.5405383030368075  0.29685651718344463  0.5220954804880624  1.0000
  P   P1        1.0  0.3362097748906933  0.8749281649178394  0.8146856590370662  1.0000
  P   P2        1.0  0.663790225620083  0.12507183451031123  0.18531434123311588  1.0000
