data_image0
_chemical_formula_structural       H48C64N4O16
_chemical_formula_sum              "H48 C64 N4 O16"
_cell_length_a       16.156022801735407
_cell_length_b       4.868588002675452
_cell_length_c       16.45035820553083
_cell_angle_alpha    90.0
_cell_angle_beta     102.95193285622932
_cell_angle_gamma    90.0

_space_group_name_H-M_alt    "P 1"
_space_group_IT_number       1

loop_
  _space_group_symop_operation_xyz
  'x, y, z'

loop_
  _atom_site_type_symbol
  _atom_site_label
  _atom_site_symmetry_multiplicity
  _atom_site_fract_x
  _atom_site_fract_y
  _atom_site_fract_z
  _atom_site_occupancy
  H   H1        1.0  0.23812903743032904  0.5314273724903795  0.2874104010881631  1.0000
  H   H2        1.0  0.2618709627220103  0.0314273727651462  0.21258959891242318  1.0000
  H   H3        1.0  0.7618709628743497  0.46857262696008706  0.7125895989130093  1.0000
  H   H4        1.0  0.7381290369475494  0.9685726287393039  0.7874104009468951  1.0000
  H   H5        1.0  0.15438159991036549  0.26156626711896597  0.36986875098927874  1.0000
  H   H6        1.0  0.3456184002419738  0.7615662668441993  0.13013124901130754  1.0000
  H   H7        1.0  0.8456183997591942  0.7384337323315007  0.6301312488700395  1.0000
  H   H8        1.0  0.6543816000627048  0.23843373260626735  0.8698687509898649  1.0000
  H   H9        1.0  0.45092246467689334  0.6843617735099012  0.49745589088174513  1.0000
  H   H10       1.0  0.04907753547544605  0.18436177378466795  0.0025441091188410994  1.0000
  H   H11       1.0  0.5490775349926662  0.31563822594056534  0.502544108977573  1.0000
  H   H12       1.0  0.9509224648292327  0.8156382256657986  0.9974558908823314  1.0000
  H   H13       1.0  0.4610932558180892  0.0523702087463318  0.3925307403843897  1.0000
  H   H14       1.0  0.03890674369698938  0.5523702084715651  0.10746926008175675  1.0000
  H   H15       1.0  0.5389067438493288  0.9476297907041348  0.607469260082343  1.0000
  H   H16       1.0  0.9610932559704285  0.44762979097890154  0.8925307403849759  1.0000
  H   H17       1.0  0.3923805432591343  0.4345987458452537  0.300880982471029  1.0000
  H   H18       1.0  0.1076194568932051  0.9345987455704869  0.19911901752955727  1.0000
  H   H19       1.0  0.6076194570455445  0.5654012536052129  0.6991190175301436  1.0000
  H   H20       1.0  0.8923805434093319  0.0654012538799796  0.8008809830790298  1.0000
  H   H21       1.0  0.36642645935614737  0.08432494180538437  0.6768093818859295  1.0000
  H   H22       1.0  0.13357354032043076  0.5843249415306176  0.8231906178002019  1.0000
  H   H23       1.0  0.6335735403134124  0.9156750576450823  0.3231906179733886  1.0000
  H   H24       1.0  0.866426459349129  0.41567505791984893  0.17680938205911628  1.0000
  H   H25       1.0  0.7149487042811703  0.2621408197404781  0.25694768672056556  1.0000
  H   H26       1.0  0.7850512960164902  0.7621408194657114  0.24305231345379377  1.0000
  H   H27       1.0  0.2850512960235086  0.7378591817639721  0.743052313280607  1.0000
  H   H28       1.0  0.21494870428818866  0.23785917998475517  0.7569476865473788  1.0000
  H   H29       1.0  0.6608047169796955  0.5614647180040349  0.13222715741208452  1.0000
  H   H30       1.0  0.8391952826828457  0.06146471622481798  0.36777284262042037  1.0000
  H   H31       1.0  0.3391952826898642  0.4385352835004153  0.8677728424472336  1.0000
  H   H32       1.0  0.16080471698671392  0.9385352832256487  0.6322271572388978  1.0000
  H   H33       1.0  0.4115476918126437  0.2279917666867722  0.12118330383428416  1.0000
  H   H34       1.0  0.0884523083396957  0.7279917684659891  0.3788166961663021  1.0000
  H   H35       1.0  0.5884523078569159  0.7720082327636945  0.878816696025034  1.0000
  H   H36       1.0  0.9115476919649831  0.27200823303846106  0.6211833038348704  1.0000
  H   H37       1.0  0.4766132866247072  0.9413098515383866  0.24789736266970172  1.0000
  H   H38       1.0  0.02338671352763219  0.4413098518131534  0.25210263733088456  1.0000
  H   H39       1.0  0.5233867130448524  0.058690147912079924  0.7521026371896165  1.0000
  H   H40       1.0  0.9766132867770466  0.5586901476373133  0.747897362670288  1.0000
  H   H41       1.0  0.5371042587301514  0.7706385748677427  0.040304174227199174  1.0000
  H   H42       1.0  0.9628957409345317  0.2706385751425094  0.4596958251978911  1.0000
  H   H43       1.0  0.4628957409394083  0.2293614245827239  0.9596958256321189  1.0000
  H   H44       1.0  0.03710425873502807  0.7293614243079573  0.540304174661427  1.0000
  H   H45       1.0  0.4321254813721863  0.6479417437389369  0.03527947292204991  1.0000
  H   H46       1.0  0.06787451878015313  0.14794174401370358  0.4647205270785364  1.0000
  H   H47       1.0  0.5678745189324925  0.3520582557115297  0.9647205270791226  1.0000
  H   H48       1.0  0.9321254808894066  0.8520582554367631  0.5352794727807818  1.0000
  C   C1        1.0  0.26885475868695125  0.36880187828858974  0.328811655247101  1.0000
  C   C2        1.0  0.23114524083026905  0.868801878013823  0.17118834461163088  1.0000
  C   C3        1.0  0.7311452409826084  0.6311981232158606  0.6711883446122172  1.0000
  C   C4        1.0  0.7688547588392906  0.1311981234906272  0.8288116552476872  1.0000
  C   C5        1.0  0.2214381518472324  0.2196759901253233  0.3743711892895148  1.0000
  C   C6        1.0  0.278561848305107  0.7196759898505567  0.12562881071107151  1.0000
  C   C7        1.0  0.7785618484574464  0.7803240093251433  0.6256288107116578  1.0000
  C   C8        1.0  0.7214381513644527  0.28032400959991  0.8743711891482467  1.0000
  C   C9        1.0  0.26182579689573354  0.013975573608325253  0.42802321247140995  1.0000
  C   C10       1.0  0.23817420325660588  0.5139755733335585  0.07197678752917631  1.0000
  C   C11       1.0  0.7381742027738262  0.9860244258421413  0.5719767873879081  1.0000
  C   C12       1.0  0.761825797048073  0.48602442611690805  0.9280232124719963  1.0000
  C   C13       1.0  0.24859851956191428  0.6676470771841327  0.5315749666922822  1.0000
  C   C14       1.0  0.2514014807476412  0.16764707540491583  0.9684250337431182  1.0000
  C   C15       1.0  0.7514014807406229  0.3323529243203175  0.46842503391630497  1.0000
  C   C16       1.0  0.7485985195570375  0.8323529240455507  0.031574966258054345  1.0000
  C   C17       1.0  0.3380877817298887  0.6014262386529551  0.5390392070991488  1.0000
  C   C18       1.0  0.16191221794668936  0.10142623892772175  0.9609607925869826  1.0000
  C   C19       1.0  0.661912217939671  0.39857376285149515  0.4609607927601694  1.0000
  C   C20       1.0  0.8380877817228702  0.8985737625767285  0.03903920727233548  1.0000
  C   C21       1.0  0.3844500366769692  0.7391080058576639  0.49197532770104035  1.0000
  C   C22       1.0  0.11554996347537017  0.239108004078447  0.008024672299545876  1.0000
  C   C23       1.0  0.6155499636277095  0.2608919956467863  0.508024672300132  1.0000
  C   C24       1.0  0.8844500361941895  0.7608919953720197  0.9919753275597722  1.0000
  C   C25       1.0  0.3483846681450637  0.951925791924305  0.43545835514333364  1.0000
  C   C26       1.0  0.15161533200727575  0.4519257921990718  0.06454164485725265  1.0000
  C   C27       1.0  0.6516153321596151  0.048074207526161546  0.564541644857839  1.0000
  C   C28       1.0  0.848384668297403  0.5480742072513948  0.9354583551439198  1.0000
  C   C29       1.0  0.394613833629519  0.10443813477759482  0.38772523212275606  1.0000
  C   C30       1.0  0.10538616652282036  0.6044381345028281  0.11227476787783018  1.0000
  C   C31       1.0  0.6053861666751598  0.8955618646728718  0.6122747678784164  1.0000
  C   C32       1.0  0.8946138331467393  0.3955618649476385  0.887725231981488  1.0000
  C   C33       1.0  0.3554464912440426  0.3129275591121651  0.3355603985300211  1.0000
  C   C34       1.0  0.14455350890829682  0.8129275588373984  0.1644396014705652  1.0000
  C   C35       1.0  0.6445535084255172  0.6870724403383016  0.664439601329297  1.0000
  C   C36       1.0  0.855446491396382  0.18707244061306824  0.8355603985306073  1.0000
  C   C37       1.0  0.3812135830082252  0.38330220363162654  0.5980322428557748  1.0000
  C   C38       1.0  0.11878641666621118  0.8833022033568598  0.9019677574377711  1.0000
  C   C39       1.0  0.6187864166591928  0.6166977958188401  0.40196775761095793  1.0000
  C   C40       1.0  0.8812135830033484  0.11669779609360675  0.09803224242154698  1.0000
  C   C41       1.0  0.6480304425653919  0.2626370950463106  0.22514468361670747  1.0000
  C   C42       1.0  0.8519695577322685  0.7626370947715438  0.2748553165576518  1.0000
  C   C43       1.0  0.35196955773928684  0.7373629064581396  0.774855316384465  1.0000
  C   C44       1.0  0.14803044257241038  0.23736290673290636  0.7251446834435207  1.0000
  C   C45       1.0  0.6178027252933286  0.4279920602965229  0.15620573371741764  1.0000
  C   C46       1.0  0.8821972743692127  0.9279920600217563  0.3437942663150873  1.0000
  C   C47       1.0  0.382197274376231  0.5720079391539437  0.8437942661419005  1.0000
  C   C48       1.0  0.11780272530034701  0.07200793942871038  0.6562057335442308  1.0000
  C   C49       1.0  0.5315003741442355  0.4200007186634622  0.11698544173595955  1.0000
  C   C50       1.0  0.9684996261534249  0.9200007183886956  0.38301455843839977  1.0000
  C   C51       1.0  0.46849962616044327  0.5799992807870044  0.8830145582652129  1.0000
  C   C52       1.0  0.03150037415125391  0.07999928106177105  0.6169854415627727  1.0000
  C   C53       1.0  0.4790201822976087  0.24233880939435298  0.1501761470817341  1.0000
  C   C54       1.0  0.020979817854730725  0.7423388091195863  0.34982385291885215  1.0000
  C   C55       1.0  0.5209798180070702  0.7576611921100972  0.8498238529194384  1.0000
  C   C56       1.0  0.9790201818126872  0.2576611903308803  0.6501761475478806  1.0000
  C   C57       1.0  0.5140618340249469  0.083546173916642  0.2195088277006736  1.0000
  C   C58       1.0  0.9859381662727136  0.5835461736418753  0.2804911724736857  1.0000
  C   C59       1.0  0.48593816564461284  0.9164538255338247  0.7804911721586446  1.0000
  C   C60       1.0  0.014061834031965223  0.41645382580859125  0.7195088275274867  1.0000
  C   C61       1.0  0.49826193431506094  0.585098703861283  0.03939578431230347  1.0000
  C   C62       1.0  0.001738065837278399  0.08509870413604982  0.46060421568828275  1.0000
  C   C63       1.0  0.5017380653544987  0.4149012955891835  0.9606042155470147  1.0000
  C   C64       1.0  0.9982619344674003  0.9149012973684004  0.5393957843128897  1.0000
  N   N1        1.0  0.5970675209075395  0.09441842475629239  0.25628199006649577  1.0000
  N   N2        1.0  0.9029324793922625  0.5944184244815257  0.2437180095004489  1.0000
  N   N3        1.0  0.4029324793971393  0.9055815767481579  0.7437180099346767  1.0000
  N   N4        1.0  0.0970675209124162  0.4055815749689409  0.7562819905007235  1.0000
  O   O1        1.0  0.4597908353718481  0.36016102800984734  0.6139522040741312  1.0000
  O   O2        1.0  0.04020916430258826  0.8601610277350806  0.8860477962194148  1.0000
  O   O3        1.0  0.5402091642977116  0.6398389714406193  0.386047795785187  1.0000
  O   O4        1.0  0.9597908353669714  0.13983897171538598  0.11395220363990338  1.0000
  O   O5        1.0  0.33005534543897874  0.22595622784172023  0.6290106305293054  1.0000
  O   O6        1.0  0.16994465487271845  0.7259562275669535  0.8709893692986803  1.0000
  O   O7        1.0  0.6699446548657  0.7740437716087464  0.37098936947186706  1.0000
  O   O8        1.0  0.8300553454319604  0.2740437718835131  0.1290106307024922  1.0000
  O   O9        1.0  0.19847535144319123  0.5704655617755594  0.5691357403782245  1.0000
  O   O10       1.0  0.301524648868506  0.07046556205032604  0.9308642594497614  1.0000
  O   O11       1.0  0.8015246488614876  0.42953443767490723  0.4308642596229481  1.0000
  O   O12       1.0  0.6984753514361728  0.9295344374001405  0.0691357405514112  1.0000
  O   O13       1.0  0.21452557775606118  0.8729740034819953  0.47293610217207716  1.0000
  O   O14       1.0  0.28547442176115906  0.37297400375676193  0.027063897686654712  1.0000
  O   O15       1.0  0.7854744219134986  0.12702599596847136  0.527063897687241  1.0000
  O   O16       1.0  0.7145255779084005  0.6270259956937047  0.9729361021726635  1.0000
