data_image0
_chemical_formula_structural       H58C66O14S48Cl4
_chemical_formula_sum              "H58 C66 O14 S48 Cl4"
_cell_length_a       10.756371759592799
_cell_length_b       12.892411753044426
_cell_length_c       18.544617041109635
_cell_angle_alpha    71.37595144294275
_cell_angle_beta     82.66595942333491
_cell_angle_gamma    87.70052726758408

_space_group_name_H-M_alt    "P 1"
_space_group_IT_number       1

loop_
  _space_group_symop_operation_xyz
  'x, y, z'

loop_
  _atom_site_type_symbol
  _atom_site_label
  _atom_site_symmetry_multiplicity
  _atom_site_fract_x
  _atom_site_fract_y
  _atom_site_fract_z
  _atom_site_occupancy
  H   H1        1.0  0.4335708571075468  0.6229458000514758  0.39209449809262736  1.0000
  H   H2        1.0  0.566429143265131  0.37705420002979867  0.6079055016841356  1.0000
  H   H3        1.0  0.2948220580989012  0.6742242045469645  0.43190844835513525  1.0000
  H   H4        1.0  0.7051779422737766  0.32577579553430974  0.5680915514216276  1.0000
  H   H5        1.0  0.160053783789846  0.5770215231119721  0.3734747757574591  1.0000
  H   H6        1.0  0.8399462164656015  0.4229784767101472  0.6265252245925697  1.0000
  H   H7        1.0  0.2599616357062577  0.484314398593878  0.43323067240181656  1.0000
  H   H8        1.0  0.7400383646664203  0.5156856014873963  0.5667693273749463  1.0000
  H   H9        1.0  0.706293852389492  0.9798530186734734  0.6702834891780797  1.0000
  H   H10       1.0  0.2937061479831859  0.020146981407800954  0.3297165105986832  1.0000
  H   H11       1.0  0.7975577698338063  0.8797468762452938  0.7315246948206332  1.0000
  H   H12       1.0  0.2024422305388717  0.12025312383598055  0.26847530495612976  1.0000
  H   H13       1.0  0.6541898670449817  0.7940937230575869  0.6686453403919059  1.0000
  H   H14       1.0  0.3458101322811377  0.2059062767673322  0.3313546599559471  1.0000
  H   H15       1.0  0.5215075228044267  0.8493494211853218  0.7113258494471095  1.0000
  H   H16       1.0  0.47849247745102086  0.1506505786367975  0.28867415090291915  1.0000
  H   H17       1.0  0.65454634482121  0.4852278275968743  0.44007391167544435  1.0000
  H   H18       1.0  0.34545365450490945  0.5147721722280446  0.5599260886724088  1.0000
  H   H19       1.0  0.518457935506889  0.4574192453539892  0.4038386795122616  1.0000
  H   H20       1.0  0.4815420639364608  0.5425807547300846  0.5961613202623256  1.0000
  H   H21       1.0  0.6527958647248042  0.2940922461781906  0.4349595159996756  1.0000
  H   H22       1.0  0.3472041356478738  0.7059077539030838  0.5650404837770873  1.0000
  H   H23       1.0  0.7829097612122012  0.36952320979945524  0.37332007272343487  1.0000
  H   H24       1.0  0.2170902390432464  0.630476790022664  0.6266799276265939  1.0000
  H   H25       1.0  0.0339927092563128  0.825953629116275  0.680506689023873  1.0000
  H   H26       1.0  0.9660072911163652  0.1740463709649994  0.31949331075288984  1.0000
  H   H27       1.0  0.1319449394205537  0.7258843892679212  0.7359280286244188  1.0000
  H   H28       1.0  0.8680550599055659  0.27411561055699774  0.2640719717234344  1.0000
  H   H29       1.0  0.984456333148394  0.64072616878241  0.6755884454103086  1.0000
  H   H30       1.0  0.015543667107053709  0.3592738310397093  0.3244115549397201  1.0000
  H   H31       1.0  0.8529222009081181  0.6909523484778927  0.7231900762276144  1.0000
  H   H32       1.0  0.1470777985352318  0.30904765160618125  0.2768099235469728  1.0000
  H   H33       1.0  0.8051885301187439  0.9856036359715141  0.30345145738513546  1.0000
  H   H34       1.0  0.19481146920737563  0.01439636385340475  0.6965485429627176  1.0000
  H   H35       1.0  0.6655872507398763  0.03298398613619773  0.3464515310276372  1.0000
  H   H36       1.0  0.33441274963280154  0.9670160139450765  0.6535484687491256  1.0000
  H   H37       1.0  0.5335795973759652  0.9400572851488458  0.2826188158693091  1.0000
  H   H38       1.0  0.46642040296161114  0.05994271570882594  0.7173811839071791  1.0000
  H   H39       1.0  0.6302952461865202  0.8446399679893981  0.34331113200049185  1.0000
  H   H40       1.0  0.3697047540689272  0.1553600318327212  0.6566888683495368  1.0000
  H   H41       1.0  0.09171166697625334  0.3639086395407634  0.5894987867530663  1.0000
  H   H42       1.0  0.9082883323498661  0.6360913602841552  0.41050121359478675  1.0000
  H   H43       1.0  0.17199289489619216  0.2584328724256497  0.6547270083620925  1.0000
  H   H44       1.0  0.8280071053592554  0.7415671273964692  0.3452729919879362  1.0000
  H   H45       1.0  0.03831436296448581  0.18146752764991367  0.5821052475815394  1.0000
  H   H46       1.0  0.9616856372909618  0.8185324721722056  0.4178947527684893  1.0000
  H   H47       1.0  0.9027378659939354  0.24438562179321338  0.616082162308969  1.0000
  H   H48       1.0  0.0972621333321841  0.7556143780317055  0.3839178380388841  1.0000
  H   H49       1.0  0.19497394861011447  0.15723778188648171  0.44933660341753134  1.0000
  H   H50       1.0  0.8050260508332352  0.8427622181975922  0.550663396357056  1.0000
  H   H51       1.0  0.08997665947562522  0.739784606079577  0.5421303800732559  1.0000
  H   H52       1.0  0.9100233408970526  0.2602153940016974  0.4578696197035071  1.0000
  H   H53       1.0  0.5654660423170711  0.8189849031327014  0.47105032317305984  1.0000
  H   H54       1.0  0.43453395793837657  0.18101509668941773  0.528949677176969  1.0000
  H   H55       1.0  0.2570195723881457  0.2914345928511684  0.4705341424288982  1.0000
  H   H56       1.0  0.7429804278673018  0.7085654069709507  0.5294658579211305  1.0000
  H   H57       1.0  0.11903696699268544  0.31497485300860706  0.4443825363013741  1.0000
  H   H58       1.0  0.8809630323334342  0.6850251468163117  0.5556174640464789  1.0000
  C   C1        1.0  0.4409781397521679  0.718295788067507  0.08743071860026184  1.0000
  C   C2        1.0  0.5590218596911819  0.2817042120165669  0.9125692811743255  1.0000
  C   C3        1.0  0.48884827418615756  0.747793169517193  0.011084223829130822  1.0000
  C   C4        1.0  0.51115172606929  0.25220683030492624  0.9889157765208978  1.0000
  C   C5        1.0  0.36817815456245656  0.7165217952036814  0.22665364332287977  1.0000
  C   C6        1.0  0.6318218447636629  0.2834782046212375  0.7733463570249732  1.0000
  C   C7        1.0  0.35979459525893137  0.6099389771537959  0.22842668433723787  1.0000
  C   C8        1.0  0.6402054051137466  0.3900610229274786  0.771573315439525  1.0000
  C   C9        1.0  0.5873080725040717  0.853751624643184  0.87332158743593  1.0000
  C   C10       1.0  0.41269192786860637  0.1462483754380905  0.12667841234083282  1.0000
  C   C11       1.0  0.5760016468579487  0.7478924557769375  0.8743400544623887  1.0000
  C   C12       1.0  0.4239983535147292  0.2521075443043368  0.1256599453143741  1.0000
  C   C13       1.0  0.3361116136680623  0.6462744353464949  0.3839273750658801  1.0000
  C   C14       1.0  0.6638883865873851  0.3537255644756246  0.6160726252841485  1.0000
  C   C15       1.0  0.2579493221276391  0.5533812933170701  0.3800962174278087  1.0000
  C   C16       1.0  0.7420506781278083  0.44661870650504903  0.61990378292222  1.0000
  C   C17       1.0  0.7017570082395739  0.9092317226201077  0.7230739722284968  1.0000
  C   C18       1.0  0.2982429920158737  0.09076827720201129  0.2769260281215319  1.0000
  C   C19       1.0  0.6179339274452866  0.8209491090309388  0.7178697906187523  1.0000
  C   C20       1.0  0.38206607188083275  0.17905089079397993  0.2821302097291008  1.0000
  C   C21       1.0  0.7691864234911449  0.5505674692128736  0.09449226127945322  1.0000
  C   C22       1.0  0.23081357688153314  0.4494325308684006  0.9055077384973097  1.0000
  C   C23       1.0  0.817688318696145  0.5830452441532061  0.018303716173601905  1.0000
  C   C24       1.0  0.18231168074720486  0.4169547559308679  0.9816962836009855  1.0000
  C   C25       1.0  0.6913349400343111  0.541782556418121  0.23441144604491196  1.0000
  C   C26       1.0  0.30866506022113654  0.4582174434039983  0.7655885543051167  1.0000
  C   C27       1.0  0.6774510474738948  0.43791255714351857  0.23149147849909724  1.0000
  C   C28       1.0  0.3225489528987831  0.5620874429377558  0.7685085212776657  1.0000
  C   C29       1.0  0.9212326853548781  0.6919780569592736  0.8828625765265716  1.0000
  C   C30       1.0  0.07876731490056932  0.3080219428628455  0.11713742382345699  1.0000
  C   C31       1.0  0.9099673453241505  0.5871706158556594  0.8817620150374975  1.0000
  C   C32       1.0  0.09003265411919936  0.4128293842284146  0.11823798473708975  1.0000
  C   C33       1.0  0.6204633804009954  0.46635866070986864  0.39229579718790597  1.0000
  C   C34       1.0  0.3795366199716826  0.5336413393714057  0.6077042025888568  1.0000
  C   C35       1.0  0.6805299838811939  0.362878838981118  0.3830635039426824  1.0000
  C   C36       1.0  0.319470016491484  0.6371211611001565  0.6169364958340805  1.0000
  C   C37       1.0  0.034488561891368355  0.7534192693383791  0.7318555809905233  1.0000
  C   C38       1.0  0.9655114384462078  0.24658073151929238  0.2681444187859649  1.0000
  C   C39       1.0  0.9507919619018698  0.6647965837863569  0.7266265313715975  1.0000
  C   C40       1.0  0.049208037424249756  0.335203416038562  0.2733734689762556  1.0000
  C   C41       1.0  0.834810343880497  0.08660998264500884  0.0037458207093619437  1.0000
  C   C42       1.0  0.16518965544562256  0.9133900171799102  0.996254179638491  1.0000
  C   C43       1.0  0.8823778765829012  0.11987773304553283  0.9274473077041268  1.0000
  C   C44       1.0  0.1176221237897767  0.8801222670357416  0.07255269207263616  1.0000
  C   C45       1.0  0.7482680964554292  0.08096994354651667  0.14114839463525655  1.0000
  C   C46       1.0  0.25173190391724865  0.9190300565347576  0.8588516051415064  1.0000
  C   C47       1.0  0.742839304039048  0.9749517165861609  0.14112311662225666  1.0000
  C   C48       1.0  0.2571606963336299  0.025048283495113517  0.8588768831545063  1.0000
  C   C49       1.0  0.9625371315181842  0.2348571577273325  0.7885027537515601  1.0000
  C   C50       1.0  0.03746286792516562  0.7651428423567416  0.21149724602302716  1.0000
  C   C51       1.0  0.948748431082261  0.13055372080136765  0.7864995091765726  1.0000
  C   C52       1.0  0.05125156836108878  0.8694462792827062  0.21350049059801457  1.0000
  C   C53       1.0  0.706857778832949  0.008472538968318597  0.29699352804114787  1.0000
  C   C54       1.0  0.2931422204931705  0.9915274608566002  0.7030064723067052  1.0000
  C   C55       1.0  0.6308459511103449  0.9157381296735811  0.2910835300094161  1.0000
  C   C56       1.0  0.36915404926233286  0.08426187040769309  0.7089164697673468  1.0000
  C   C57       1.0  0.07952416534376137  0.29222649842711135  0.6415643150726257  1.0000
  C   C58       1.0  0.9204758350289165  0.707773501654163  0.35843568470413734  1.0000
  C   C59       1.0  0.9948300215382051  0.20984608814379016  0.629347546102792  1.0000
  C   C60       1.0  0.005169978834472838  0.7901539119374843  0.37065245367397087  1.0000
  C   C61       1.0  0.15281182038120905  0.001618186277144669  0.506068325189463  1.0000
  C   C62       1.0  0.8471881799914689  0.9983818138041296  0.4939316745873  1.0000
  C   C63       1.0  0.16575826057626228  0.8866852160322944  0.4961110191572718  1.0000
  C   C64       1.0  0.8342417387498571  0.11331478379262434  0.5038889811905812  1.0000
  C   C65       1.0  0.4965095979997045  0.936947549526534  0.5108330074648973  1.0000
  C   C66       1.0  0.5034904023729734  0.06305245055474036  0.48916699231186556  1.0000
  O   O1        1.0  0.207207736962427  0.07715817527778739  0.4456535084429114  1.0000
  O   O2        1.0  0.7927922624809228  0.9228418248062867  0.5543464913316758  1.0000
  O   O3        1.0  0.23670669256746846  0.8672287268044597  0.44470932493751403  1.0000
  O   O4        1.0  0.7632933078052095  0.13277127327681448  0.5552906748392489  1.0000
  O   O5        1.0  0.09712276251986282  0.015712885150465015  0.5643109810759411  1.0000
  O   O6        1.0  0.9028772377355846  0.9842871146716542  0.43568901927408754  1.0000
  O   O7        1.0  0.09067712739453639  0.8158710688340548  0.5497844578175564  1.0000
  O   O8        1.0  0.9093228729781416  0.1841289312472195  0.4502155419592065  1.0000
  O   O9        1.0  0.5635546592450942  0.9028556962204544  0.45822702506236096  1.0000
  O   O10       1.0  0.4364453411275836  0.09714430386081997  0.541772974714402  1.0000
  O   O11       1.0  0.4355119026506616  0.8802194648044718  0.5697265029922198  1.0000
  O   O12       1.0  0.5644880977220164  0.11978053527680262  0.43027349678454296  1.0000
  O   O13       1.0  0.19845192964567054  0.27417869744447687  0.4382408350701127  1.0000
  O   O14       1.0  0.8015480707270074  0.7258213026367974  0.5617591647066502  1.0000
  S   S1        1.0  0.41785032770317143  0.8118086935761212  0.13736027281130583  1.0000
  S   S2        1.0  0.582149671622948  0.1881913062487978  0.8626397275365472  1.0000
  S   S3        1.0  0.4005121427220823  0.5844351163142232  0.1411891660841733  1.0000
  S   S4        1.0  0.5994878576505956  0.41556488376705103  0.8588108336925896  1.0000
  S   S5        1.0  0.5296616293550072  0.8821446965800438  0.9574755993883551  1.0000
  S   S6        1.0  0.47033837101767073  0.11785530350123055  0.042524400388407865  1.0000
  S   S7        1.0  0.5090843096179686  0.6546323754588477  0.9602814122814974  1.0000
  S   S8        1.0  0.490915690637479  0.34536762436327156  0.039718588068531256  1.0000
  S   S9        1.0  0.3356333930797563  0.769552500252505  0.30228222906115115  1.0000
  S   S10       1.0  0.6643666072929215  0.23044749982876933  0.6977177707156117  1.0000
  S   S11       1.0  0.31771948452119686  0.49417674872994033  0.3059411926959148  1.0000
  S   S12       1.0  0.6822805157342506  0.5058232510921787  0.694058807654114  1.0000
  S   S13       1.0  0.6458539027657147  0.9668117469577577  0.7984981559706225  1.0000
  S   S14       1.0  0.3541460976069632  0.03318825312351662  0.20150184380614047  1.0000
  S   S15       1.0  0.6143431806008721  0.6960760171823304  0.7986281957334785  1.0000
  S   S16       1.0  0.3856568197718057  0.30392398289894396  0.20137180404328445  1.0000
  S   S17       1.0  0.7546771563313954  0.6387449794925824  0.14903337545597567  1.0000
  S   S18       1.0  0.24532284299472407  0.3612550203323365  0.8509666248918774  1.0000
  S   S19       1.0  0.7236794834550853  0.41672400699897033  0.1437434867241578  1.0000
  S   S20       1.0  0.27632051691759263  0.5832759930823039  0.8562565130526051  1.0000
  S   S21       1.0  0.8608232638431463  0.7176020137035107  0.9676567647507588  1.0000
  S   S22       1.0  0.139176735482973  0.2823979861214081  0.032343235597094386  1.0000
  S   S23       1.0  0.8385879866515684  0.49250556690190966  0.9655005992782557  1.0000
  S   S24       1.0  0.16141201360387927  0.5074944329202096  0.03449940107177298  1.0000
  S   S25       1.0  0.6600427571950228  0.5899427879224944  0.312053886071921  1.0000
  S   S26       1.0  0.339957242248327  0.41005721216157953  0.6879461137026662  1.0000
  S   S27       1.0  0.6248950135027517  0.32358497801382874  0.30731849200103867  1.0000
  S   S28       1.0  0.3751049859405981  0.6764150220702452  0.6926815077735486  1.0000
  S   S29       1.0  0.9841436873420097  0.8061229769940641  0.8107868952049315  1.0000
  S   S30       1.0  0.01585631291343789  0.19387702282805508  0.1892131051450971  1.0000
  S   S31       1.0  0.9542778025164175  0.5382647558999683  0.8053252141797912  1.0000
  S   S32       1.0  0.04572219680970213  0.4617352439249506  0.19467478616806186  1.0000
  S   S33       1.0  0.8137890765966439  0.17685270170352674  0.056511396859272804  1.0000
  S   S34       1.0  0.18621092377603404  0.8231472983777478  0.94348860291749  1.0000
  S   S35       1.0  0.7940528988378063  0.9514080783548399  0.05453290508168057  1.0000
  S   S36       1.0  0.20594710060554355  0.04859192172923425  0.9454670946929066  1.0000
  S   S37       1.0  0.9253097795160716  0.2544770428229282  0.8778190380971101  1.0000
  S   S38       1.0  0.07469022085660616  0.7455229572583462  0.12218096167965278  1.0000
  S   S39       1.0  0.9033770513561482  0.03059465134180611  0.8742830636021981  1.0000
  S   S40       1.0  0.09662294901652967  0.9694053487394683  0.12571693617456486  1.0000
  S   S41       1.0  0.7019874428739165  0.13192155225005733  0.21624567266886519  1.0000
  S   S42       1.0  0.29801255656943326  0.8680784478340167  0.783754327105722  1.0000
  S   S43       1.0  0.6934374288059565  0.8591107728969946  0.21619750940052643  1.0000
  S   S44       1.0  0.30656257156672134  0.14088922718427982  0.7838024903762364  1.0000
  S   S45       1.0  0.013976209114879328  0.3513196165193644  0.7143508485189144  1.0000
  S   S46       1.0  0.9860237902112402  0.6486803833055544  0.2856491518289386  1.0000
  S   S47       1.0  0.9723342453526377  0.08315242406181599  0.7081474144889774  1.0000
  S   S48       1.0  0.027665755020040116  0.9168475760194584  0.2918525852877854  1.0000
  Cl  Cl1       1.0  0.6114189918008879  0.6755271637826563  0.470380553395678  1.0000
  Cl  Cl2       1.0  0.3885810085717901  0.3244728362986178  0.5296194463810849  1.0000
  Cl  Cl3       1.0  0.9543994877306448  0.40351706648905894  0.451497710609856  1.0000
  Cl  Cl4       1.0  0.04560051159547478  0.5964829333358599  0.5485022897379971  1.0000
