data_image0
_chemical_formula_structural       H30C48N2O4F8I4
_chemical_formula_sum              "H30 C48 N2 O4 F8 I4"
_cell_length_a       6.463674669034522
_cell_length_b       15.391239919926862
_cell_length_c       11.519825987868026
_cell_angle_alpha    90.0
_cell_angle_beta     99.06320004336175
_cell_angle_gamma    90.0

_space_group_name_H-M_alt    "P 1"
_space_group_IT_number       1

loop_
  _space_group_symop_operation_xyz
  'x, y, z'

loop_
  _atom_site_type_symbol
  _atom_site_label
  _atom_site_symmetry_multiplicity
  _atom_site_fract_x
  _atom_site_fract_y
  _atom_site_fract_z
  _atom_site_occupancy
  H   H1        1.0  0.5846924488109099  0.40176807665729536  0.8759911815174835  1.0000
  H   H2        1.0  0.41530755057375524  0.9017680766596712  0.12400881825581761  1.0000
  H   H3        1.0  0.7143842803571803  0.3267849878350737  0.7125625182068925  1.0000
  H   H4        1.0  0.28561571928211943  0.8267849878374496  0.2874374824454406  1.0000
  H   H5        1.0  0.041084474437550575  0.2369116236879067  0.7503718060462612  1.0000
  H   H6        1.0  0.9589155249471145  0.7369116236902826  0.24962819372703976  1.0000
  H   H7        1.0  0.8389698390602015  0.9173427653297923  0.3375473617365919  1.0000
  H   H8        1.0  0.161030161870299  0.41734276532741643  0.6624526380322487  1.0000
  H   H9        1.0  0.5599055325589548  0.9235406188163393  0.4622764876544626  1.0000
  H   H10       1.0  0.44009446837154576  0.4235406188139634  0.5377235121143781  1.0000
  H   H11       1.0  0.2612089911632676  0.02689966189559388  0.41333732470976986  1.0000
  H   H12       1.0  0.7387910082213974  0.5268996618979698  0.5866626750635312  1.0000
  H   H13       1.0  0.5671459213379604  0.4930653546745609  0.032021552137217475  1.0000
  H   H14       1.0  0.4328540780467048  0.9930653546769369  0.9679784476360835  1.0000
  H   H15       1.0  0.5598714455585169  0.458547825043165  0.1798867953930422  1.0000
  H   H16       1.0  0.44012855382614835  0.9585478250455409  0.8201132043802589  1.0000
  H   H17       1.0  0.46004317809196726  0.38866882272785896  0.059686179488000604  1.0000
  H   H18       1.0  0.539956821292698  0.888668822730235  0.9403138202853004  1.0000
  H   H19       1.0  0.2483372367787512  0.25935630532481285  0.13732857987129346  1.0000
  H   H20       1.0  0.7516627626059139  0.7593563053271888  0.8626714199020076  1.0000
  H   H21       1.0  0.32028236775506685  0.1708901949215082  0.8868189129106401  1.0000
  H   H22       1.0  0.6797176318842328  0.6708901949238841  0.11318108774169301  1.0000
  H   H23       1.0  0.6914578059136828  0.17644562193355146  0.951715265116839  1.0000
  H   H24       1.0  0.3085421950168178  0.6764456219359274  0.04828473465200155  1.0000
  H   H25       1.0  0.9815474378207787  0.0697548693663078  0.9987227160819088  1.0000
  H   H26       1.0  0.018452561563886527  0.5697548693686838  0.001277283691392244  1.0000
  H   H27       1.0  0.9906889762107839  0.9698295892765819  0.16840601739374636  1.0000
  H   H28       1.0  0.009311023428515698  0.4698295892742059  0.8315939832585867  1.0000
  H   H29       1.0  0.2463658276424366  0.12648468480304548  0.24523860519186627  1.0000
  H   H30       1.0  0.7536341717422286  0.6264846848054214  0.7547613945814347  1.0000
  C   C1        1.0  0.09735493819544624  0.26511469194350584  0.9362777215346725  1.0000
  C   C2        1.0  0.902645061189219  0.7651146919458818  0.06372227823862849  1.0000
  C   C3        1.0  0.026369373259244298  0.3099483767921583  0.029870805102803707  1.0000
  C   C4        1.0  0.9736306261254207  0.8099483767945344  0.9701291946704973  1.0000
  C   C5        1.0  0.8399912065986022  0.35945716256668486  0.0075738638195358325  1.0000
  C   C6        1.0  0.16000879278606298  0.8594571625690608  0.9924261359537652  1.0000
  C   C7        1.0  0.7285311573535699  0.3639525976557331  0.8938393388145882  1.0000
  C   C8        1.0  0.2714688422857299  0.8639525976581091  0.1061606618377449  1.0000
  C   C9        1.0  0.8020606265917234  0.32058901853720484  0.8008549358677033  1.0000
  C   C10       1.0  0.19793937433877717  0.8205890185395807  0.19914506390113734  1.0000
  C   C11       1.0  0.9837726686703715  0.2716513920744514  0.8213558455776182  1.0000
  C   C12       1.0  0.016227332260129138  0.7716513920768273  0.17864415419122254  1.0000
  C   C13       1.0  0.709484441670584  0.9632044817134164  0.3176552996258344  1.0000
  C   C14       1.0  0.29051555796871564  0.46320448171104056  0.6823447010264987  1.0000
  C   C15       1.0  0.5533157375999699  0.9663229328745773  0.38648977557169484  1.0000
  C   C16       1.0  0.4466842617846953  0.46632293287220133  0.6135102242016062  1.0000
  C   C17       1.0  0.3853270256456784  0.02544604866388575  0.3594252825626859  1.0000
  C   C18       1.0  0.6146729752848221  0.5254460486662617  0.6405747172061548  1.0000
  C   C19       1.0  0.5802504526561065  0.43711704547530494  0.09193784955589152  1.0000
  C   C20       1.0  0.419749548274394  0.9371170454776809  0.908062150212949  1.0000
  C   C21       1.0  0.2739974142941536  0.2072683959574817  0.9607753335160564  1.0000
  C   C22       1.0  0.7260025850905116  0.7072683959598576  0.03922466625724465  1.0000
  C   C23       1.0  0.533757661981779  0.1362108420703484  0.09331646916713059  1.0000
  C   C24       1.0  0.4662423389487215  0.6362108420727244  0.90668353060171  1.0000
  C   C25       1.0  0.6930394836748036  0.13196161261643508  0.025429953042133593  1.0000
  C   C26       1.0  0.306960517255697  0.631961612618811  0.9745700467267069  1.0000
  C   C27       1.0  0.8581581115893043  0.07199045793350645  0.052997808368240924  1.0000
  C   C28       1.0  0.14184188934119626  0.5719904579358824  0.9470021914005996  1.0000
  C   C29       1.0  0.8638475254418462  0.016554417404027494  0.1474324952963466  1.0000
  C   C30       1.0  0.13615247574328898  0.5165544174064034  0.852567505351526  1.0000
  C   C31       1.0  0.7054579595623733  0.01960042865743552  0.2196547428088756  1.0000
  C   C32       1.0  0.2945420400769263  0.5196004280100912  0.7803452578434574  1.0000
  C   C33       1.0  0.37710063351272916  0.08142879693385713  0.2651142686303474  1.0000
  C   C34       1.0  0.6228993674177716  0.5814287969362331  0.7348857311384933  1.0000
  C   C35       1.0  0.536514275427749  0.0805137562955934  0.1934066312363694  1.0000
  C   C36       1.0  0.46348572550275163  0.5805137562979693  0.8065933685324713  1.0000
  C   C37       1.0  0.7474786698692317  0.20563607717545343  0.46065190054621147  1.0000
  C   C38       1.0  0.2525213310612689  0.7056360771778294  0.539348099222629  1.0000
  C   C39       1.0  0.8332686441289626  0.13653270697699485  0.5305728179541928  1.0000
  C   C40       1.0  0.16673135705617242  0.6365327069793708  0.4694271826936799  1.0000
  C   C41       1.0  0.7399924862096594  0.10195509381725346  0.6217514942631595  1.0000
  C   C42       1.0  0.26000751317500576  0.6019550938196294  0.37824850551014155  1.0000
  C   C43       1.0  0.5521140137371227  0.1390696715232655  0.6419443989437761  1.0000
  C   C44       1.0  0.44788598564754245  0.6390696715256414  0.358055600829525  1.0000
  C   C45       1.0  0.4607886102320235  0.20812800441455412  0.5741404476528443  1.0000
  C   C46       1.0  0.5392113894072762  0.7081280044169301  0.42585955299948863  1.0000
  C   C47       1.0  0.5579921572015892  0.24009161699933787  0.4832110136687491  1.0000
  C   C48       1.0  0.4420078424377105  0.7400916170017138  0.5167889869835841  1.0000
  N   N1        1.0  0.36743546495888263  0.19500468939569762  0.06803952957265662  1.0000
  N   N2        1.0  0.6325645344257825  0.6950046893980735  0.9319604702006444  1.0000
  O   O1        1.0  0.12914673253774767  0.30496604720734577  0.14092746521786226  1.0000
  O   O2        1.0  0.8708532668469176  0.8049660472097216  0.8590725345554387  1.0000
  O   O3        1.0  0.7847340552555806  0.39887505567707193  0.10411154245006915  1.0000
  O   O4        1.0  0.2152659443837191  0.8988750556794479  0.8958884582022639  1.0000
  F   F1        1.0  0.0156504028305074  0.10119644603703905  0.509499014202195  1.0000
  F   F2        1.0  0.984349598099993  0.601196446039415  0.4905009855666456  1.0000
  F   F3        1.0  0.4543376536970517  0.10928833861021335  0.7297904102222257  1.0000
  F   F4        1.0  0.5456623472334489  0.6092883386125892  0.270209589546615  1.0000
  F   F5        1.0  0.28258597425747256  0.24502768715322062  0.598542914359683  1.0000
  F   F6        1.0  0.7174140269276625  0.7450276871555965  0.4014570862881896  1.0000
  F   F7        1.0  0.465107715421244  0.30607805508254243  0.41701613498111456  1.0000
  F   F8        1.0  0.5348922839634211  0.8060780550849184  0.5829838647921864  1.0000
  I   I1        1.0  0.894460440210918  0.2569435653380934  0.32706037068958954  1.0000
  I   I2        1.0  0.10553956071958248  0.7569435653404694  0.6729396290792511  1.0000
  I   I3        1.0  0.8801978430436075  0.0003134854647904759  0.7255504190061155  1.0000
  I   I4        1.0  0.11980215634105772  0.5003134854671664  0.2744495807671856  1.0000
