data_image0
_chemical_formula_structural       H56C32N4O4P4I4
_chemical_formula_sum              "H56 C32 N4 O4 P4 I4"
_cell_length_a       12.408899762314407
_cell_length_b       6.0425733524979455
_cell_length_c       15.915936918046345
_cell_angle_alpha    90.0
_cell_angle_beta     108.07507860637693
_cell_angle_gamma    90.0

_space_group_name_H-M_alt    "P 1"
_space_group_IT_number       1

loop_
  _space_group_symop_operation_xyz
  'x, y, z'

loop_
  _atom_site_type_symbol
  _atom_site_label
  _atom_site_symmetry_multiplicity
  _atom_site_fract_x
  _atom_site_fract_y
  _atom_site_fract_z
  _atom_site_occupancy
  H   H1        1.0  0.9273601406192162  0.7145320624391159  0.9878469204337933  1.0000
  H   H2        1.0  0.5726398599408855  0.2145320618183494  0.5121530796687059  1.0000
  H   H3        1.0  0.07263985975418492  0.2854679371474931  0.012153079634539493  1.0000
  H   H4        1.0  0.42736014043251563  0.7854679377682596  0.4878469203996269  1.0000
  H   H5        1.0  0.07533147905301871  0.7068486091665451  0.0007821332826785331  1.0000
  H   H6        1.0  0.4246685203281373  0.20684860854577852  0.49921786675231206  1.0000
  H   H7        1.0  0.9246685205148378  0.293151390420064  0.9992178667864785  1.0000
  H   H8        1.0  0.5753314792397193  0.7931513910408305  0.500782133316845  1.0000
  H   H9        1.0  0.2355216105053977  0.6498055101601409  0.16786057726621786  1.0000
  H   H10       1.0  0.2644783896813029  0.14980551119429839  0.33213942276794856  1.0000
  H   H11       1.0  0.7644783898680035  0.35019448942646814  0.8321394228021151  1.0000
  H   H12       1.0  0.7355216106920982  0.8501944900472347  0.6678605773003844  1.0000
  H   H13       1.0  0.18534558497170317  0.3712802442145882  0.16233382922119743  1.0000
  H   H14       1.0  0.31465441521499743  0.8712802448353547  0.337666170812969  1.0000
  H   H15       1.0  0.8146544145961533  0.6287197553720208  0.8376661708479595  1.0000
  H   H16       1.0  0.6853455851584037  0.12871975640617836  0.6623338292553639  1.0000
  H   H17       1.0  0.1935345643448692  0.536937625864113  0.2582872597763917  1.0000
  H   H18       1.0  0.3064654358418314  0.03693762524334634  0.24171274025777473  1.0000
  H   H19       1.0  0.8064654352229873  0.46306237372249615  0.7417127402927652  1.0000
  H   H20       1.0  0.6935345645315697  0.9630623743432627  0.7582872598105582  1.0000
  H   H21       1.0  0.09636718557714738  0.011232214495491817  0.13300728213873994  1.0000
  H   H22       1.0  0.4036328146095532  0.5112322151162584  0.3669927178954265  1.0000
  H   H23       1.0  0.9036328139907093  0.9887677850911172  0.866992717930417  1.0000
  H   H24       1.0  0.596367185763848  0.4887677861252747  0.6330072821729064  1.0000
  H   H25       1.0  0.05377632944107699  0.9553626283433624  0.22892963759538243  1.0000
  H   H26       1.0  0.4462236707456236  0.45536262937752  0.271070362438784  1.0000
  H   H27       1.0  0.9462236709323241  0.044637371243246605  0.7710703624729504  1.0000
  H   H28       1.0  0.5537763293637609  0.5446373702090891  0.7289296369686326  1.0000
  H   H29       1.0  0.9484611636682131  0.9950332580595751  0.12323457910793152  1.0000
  H   H30       1.0  0.5515388368642331  0.4950332574388086  0.3767654208569926  1.0000
  H   H31       1.0  0.051538836705188065  0.0049667431819579565  0.8767654209604013  1.0000
  H   H32       1.0  0.44846116350916815  0.5049667421478005  0.6232345792113403  1.0000
  H   H33       1.0  0.8266684028959503  0.5457722343803557  0.1456875970227524  1.0000
  H   H34       1.0  0.6733315968309513  0.045772233759589116  0.3543124029429958  1.0000
  H   H35       1.0  0.1733315966719063  0.4542277652062534  0.8543124030464045  1.0000
  H   H36       1.0  0.3266684035424498  0.95422776582702  0.645687597125337  1.0000
  H   H37       1.0  0.7529860887653228  0.8652075225266002  0.19402035263776338  1.0000
  H   H38       1.0  0.7470139109615788  0.36520752356075775  0.3059796473279849  1.0000
  H   H39       1.0  0.24701391160807837  0.13479247706000885  0.8059796474305694  1.0000
  H   H40       1.0  0.25298608860627775  0.6347924760258513  0.6940203527411721  1.0000
  H   H41       1.0  0.5460652046858987  0.8795564240528279  0.18999722800187263  1.0000
  H   H42       1.0  0.9539347950410029  0.37955642343206125  0.31000277196387566  1.0000
  H   H43       1.0  0.4539347956875025  0.1204435771887053  0.8100027720664602  1.0000
  H   H44       1.0  0.04606520452685369  0.6204435761545478  0.6899972281052813  1.0000
  H   H45       1.0  0.42195627936442387  0.5568512012533561  0.12328206468590343  1.0000
  H   H46       1.0  0.07804372082227673  0.05685120063258956  0.376717935348263  1.0000
  H   H47       1.0  0.5780437210089773  0.443148798333253  0.8767179353824294  1.0000
  H   H48       1.0  0.9219562784815629  0.9431487989540196  0.6232820640599777  1.0000
  H   H49       1.0  0.5046579632484044  0.23068126751390958  0.06979336991535542  1.0000
  H   H50       1.0  0.9953420364784972  0.7306812681346762  0.43020663005039284  1.0000
  H   H51       1.0  0.49534203712499675  0.7693187320726995  0.9302066301529774  1.0000
  H   H52       1.0  0.004657962825342689  0.269318733106857  0.5697933693578479  1.0000
  H   H53       1.0  0.7129868226474108  0.24183502867961204  0.07964861625403487  1.0000
  H   H54       1.0  0.7870131770794907  0.7418350293003787  0.4203513837117134  1.0000
  H   H55       1.0  0.2870131769204458  0.7581649709069971  0.9203513838151222  1.0000
  H   H56       1.0  0.21298682302989375  0.2581649702862305  0.5796486156957033  1.0000
  C   C1        1.0  0.006094790508774218  0.6191909426226981  0.016674594538753414  1.0000
  C   C2        1.0  0.4939052088723817  0.11919094200193162  0.48332540549623715  1.0000
  C   C3        1.0  0.9939052087950656  0.38080905861883496  0.9833254048694872  1.0000
  C   C4        1.0  0.5060947906954748  0.8808090575846775  0.5166745945729199  1.0000
  C   C5        1.0  0.17608750877097012  0.5387430371290817  0.18607305847903502  1.0000
  C   C6        1.0  0.32391249141573053  0.03874303650831513  0.3139269415551314  1.0000
  C   C7        1.0  0.8239124916024311  0.46125696245752734  0.8139269415892978  1.0000
  C   C8        1.0  0.6760875089576708  0.961256963078294  0.6860730585132016  1.0000
  C   C9        1.0  0.03310089701891863  0.928283811015914  0.15758586323514545  1.0000
  C   C10       1.0  0.4668991023622372  0.4282838103951474  0.342414136799845  1.0000
  C   C11       1.0  0.9668991025489378  0.07171618857069512  0.8424141368340116  1.0000
  C   C12       1.0  0.5331008972056193  0.5717161891914616  0.6575858632693118  1.0000
  C   C13       1.0  0.6933528166874869  0.7311625680429011  0.16820150580611873  1.0000
  C   C14       1.0  0.8066471833034313  0.2311625674221346  0.3317984948205458  1.0000
  C   C15       1.0  0.30664718368591426  0.26883743319863196  0.8317984942622141  1.0000
  C   C16       1.0  0.19335281626442513  0.7688374321644744  0.6682015052486111  1.0000
  C   C17       1.0  0.5801977856008739  0.7374976189834371  0.16456815942106695  1.0000
  C   C18       1.0  0.9198022141260277  0.2374976183626706  0.33543184054468134  1.0000
  C   C19       1.0  0.41980221396698275  0.26250238225809597  0.8354318406480901  1.0000
  C   C20       1.0  0.08019778624737343  0.7625023812239385  0.6645681595236516  1.0000
  C   C21       1.0  0.51174525022214  0.5554482890327712  0.1287298707851899  1.0000
  C   C22       1.0  0.9882547495047616  0.055448290066928724  0.3712701291805584  1.0000
  C   C23       1.0  0.48825474934571644  0.4445517105538378  0.8712701292839671  1.0000
  C   C24       1.0  0.011745250063095002  0.9445517095196804  0.6287298708885987  1.0000
  C   C25       1.0  0.5576316869707972  0.37297735890426936  0.09823752561602082  1.0000
  C   C26       1.0  0.9423683127561043  0.8729773595250359  0.40176247434972745  1.0000
  C   C27       1.0  0.44236831259705933  0.6270226406823397  0.9017624744531362  1.0000
  C   C28       1.0  0.05763168761729682  0.12702264006157318  0.5982375257186053  1.0000
  C   C29       1.0  0.6715812441620225  0.37575940705152944  0.10431849050655943  1.0000
  C   C30       1.0  0.828418755564879  0.875759407672296  0.39568150945918884  1.0000
  C   C31       1.0  0.32841875540583404  0.6242405925350797  0.8956815095625975  1.0000
  C   C32       1.0  0.1715812448085221  0.12424059356923717  0.604318490609144  1.0000
  N   N1        1.0  0.7359012064469991  0.5523257319864096  0.1390490773070478  1.0000
  N   N2        1.0  0.7640987932799025  0.05232573136564295  0.3609509226587005  1.0000
  N   N3        1.0  0.26409879312085743  0.4476742676001995  0.8609509227621092  1.0000
  N   N4        1.0  0.23590120709349865  0.947674268220966  0.6390490774096323  1.0000
  O   O1        1.0  0.9489647677749703  0.507621518360549  0.16682919748034025  1.0000
  O   O2        1.0  0.5510352327574759  0.007621517739782483  0.3331708024845839  1.0000
  O   O3        1.0  0.051035232598430985  0.49237848122606004  0.8331708025879927  1.0000
  O   O4        1.0  0.4489647676159252  0.9923784818468265  0.6668291975837489  1.0000
  P   P1        1.0  0.03453375484225952  0.6372322726389791  0.13505535674464586  1.0000
  P   P2        1.0  0.4654662445388964  0.13723227201821245  0.3649446432903447  1.0000
  P   P3        1.0  0.9654662447255971  0.3627677286025541  0.8649446433245112  1.0000
  P   P4        1.0  0.5345337550289602  0.8627677275683966  0.6350553567788123  1.0000
  I   I1        1.0  0.28199553618000284  0.04582938490693219  0.05160955573603711  1.0000
  I   I2        1.0  0.21800446400669773  0.5458293838727747  0.4483904442981293  1.0000
  I   I3        1.0  0.7180044641933984  0.9541706146796769  0.9483904443322957  1.0000
  I   I4        1.0  0.7819955363667034  0.4541706157138344  0.5516095557702037  1.0000
