data_image0
_chemical_formula_structural       H10C32N4O4S12Cl4I2
_chemical_formula_sum              "H10 C32 N4 O4 S12 Cl4 I2"
_cell_length_a       6.9853793058757585
_cell_length_b       12.65979722641989
_cell_length_c       13.115721761935143
_cell_angle_alpha    62.20606495518963
_cell_angle_beta     76.32459979776756
_cell_angle_gamma    78.49150195899854

_space_group_name_H-M_alt    "P 1"
_space_group_IT_number       1

loop_
  _space_group_symop_operation_xyz
  'x, y, z'

loop_
  _atom_site_type_symbol
  _atom_site_label
  _atom_site_symmetry_multiplicity
  _atom_site_fract_x
  _atom_site_fract_y
  _atom_site_fract_z
  _atom_site_occupancy
  H   H1        1.0  0.3136322381187114  0.056556306582194155  0.8659737736532634  1.0000
  H   H2        1.0  0.6863677617356533  0.9434436938475155  0.13402622577697842  1.0000
  H   H3        1.0  0.7165253756596838  0.5164529126441811  0.4866365949490169  1.0000
  H   H4        1.0  0.28347462394850403  0.48354708738945024  0.5133634053551416  1.0000
  H   H5        1.0  0.7152690586728132  0.5500684563154662  0.33896117079812726  1.0000
  H   H6        1.0  0.28473094093537454  0.44993154371816496  0.6610388295060312  1.0000
  H   H7        1.0  0.9191698946753546  0.7235551423542874  0.2700934805668601  1.0000
  H   H8        1.0  0.08083010636457741  0.2764448576777413  0.7299065197381869  1.0000
  H   H9        1.0  0.04652828060492109  0.5821153548034684  0.35075527686372626  1.0000
  H   H10       1.0  0.9534717190032668  0.4178846452301628  0.6492447234404323  1.0000
  C   C1        1.0  0.11702698448857009  0.014370394335807921  0.7858224124669151  1.0000
  C   C2        1.0  0.8829730153657945  0.9856296060939015  0.21417758696332703  1.0000
  C   C3        1.0  0.29344220896028567  0.019634873461584372  0.8094228241770415  1.0000
  C   C4        1.0  0.7065577906479023  0.9803651265720469  0.19057717612711697  1.0000
  C   C5        1.0  0.3801940907106571  0.921561455400512  0.6711518151097577  1.0000
  C   C6        1.0  0.6198059091437076  0.07843854502919743  0.3288481843204843  1.0000
  C   C7        1.0  0.4778486694414707  0.8655730037085329  0.6007119009482875  1.0000
  C   C8        1.0  0.5221513304128939  0.13442699672117664  0.39928809848195457  1.0000
  C   C9        1.0  0.5550323809977405  0.7534964282781301  0.47292837045532987  1.0000
  C   C10       1.0  0.4449676188566241  0.24650357215157953  0.5270716289749121  1.0000
  C   C11       1.0  0.7332555664264675  0.7539458653339987  0.4994546296440356  1.0000
  C   C12       1.0  0.2667444331817204  0.24605413469963255  0.500545370660123  1.0000
  C   C13       1.0  0.727285618881587  0.5878055690063329  0.39693988786288636  1.0000
  C   C14       1.0  0.2727143812623888  0.4121944306176997  0.6030601115664038  1.0000
  C   C15       1.0  0.9178239914936236  0.6464166238519989  0.35633737223871387  1.0000
  C   C16       1.0  0.08217600836074093  0.3535833765777106  0.6436626271915281  1.0000
  C   C17       1.0  0.6528677360890938  0.428921254766853  0.07323669985701826  1.0000
  C   C18       1.0  0.3471322637652709  0.5710787456628564  0.9267632995732238  1.0000
  C   C19       1.0  0.7918962766583204  0.4463937906704769  0.9642450779740148  1.0000
  C   C20       1.0  0.20810372294986737  0.5536062093631544  0.03575492233014369  1.0000
  C   C21       1.0  0.8534554400253114  0.5567280735209774  0.8852010599669625  1.0000
  C   C22       1.0  0.1465445598290531  0.44327192690873213  0.11479893946327963  1.0000
  C   C23       1.0  0.788051856723039  0.6654944406836317  0.9029686939464462  1.0000
  C   C24       1.0  0.21194814288514882  0.33450555934999965  0.09703130635771233  1.0000
  C   C25       1.0  0.6607396908264136  0.6468027862074223  0.01451000268248241  1.0000
  C   C26       1.0  0.339260309027951  0.35319721422228717  0.9854899967477597  1.0000
  C   C27       1.0  0.6028624835814594  0.7464792142683546  0.040169353847894634  1.0000
  C   C28       1.0  0.39713751631633964  0.2535207849595999  0.959830646455312  1.0000
  C   C29       1.0  0.5979907085368567  0.5346130018237947  0.09528013193969814  1.0000
  C   C30       1.0  0.40200929107133127  0.46538699820983664  0.9047198683644603  1.0000
  C   C31       1.0  0.4860871853691801  0.5191348993955915  0.20557726464476225  1.0000
  C   C32       1.0  0.5139128156707519  0.48086510063643734  0.7944227356602849  1.0000
  N   N1        1.0  0.5537229483829307  0.8271227851140655  0.06433381537199387  1.0000
  N   N2        1.0  0.44627705122525735  0.17287721491956576  0.9356661849321646  1.0000
  N   N3        1.0  0.39815297390256077  0.5098652977218998  0.29667166037754805  1.0000
  N   N4        1.0  0.6018470259518037  0.4901347027078097  0.703328339052694  1.0000
  O   O1        1.0  0.586600643213851  0.3304634678456827  0.14228566866513903  1.0000
  O   O2        1.0  0.4133993563943368  0.6695365321879487  0.8577143316390194  1.0000
  O   O3        1.0  0.8436672793833742  0.7656379868924174  0.8302809844715732  1.0000
  O   O4        1.0  0.15633272190273453  0.23436201353568972  0.16971901495955755  1.0000
  S   S1        1.0  0.12616808072887073  0.951560499226509  0.6926675008893227  1.0000
  S   S2        1.0  0.8738319188793172  0.04843950080712226  0.30733249941483587  1.0000
  S   S3        1.0  0.5023627507406216  0.959437815895138  0.7474781465466421  1.0000
  S   S4        1.0  0.4976372491137431  0.04056218453457159  0.25252185288359996  1.0000
  S   S5        1.0  0.34971369378637085  0.8231765439114314  0.5307103919951647  1.0000
  S   S6        1.0  0.6502863060679936  0.17682345651827802  0.46928960743507747  1.0000
  S   S7        1.0  0.7290268480577972  0.8222604362349151  0.5883493898508608  1.0000
  S   S8        1.0  0.27097315327174604  0.17773956299143684  0.41165061045323437  1.0000
  S   S9        1.0  0.5075354090563636  0.6936377927509288  0.3874985039923451  1.0000
  S   S10       1.0  0.49246459055182423  0.3063622072827025  0.6125014963118134  1.0000
  S   S11       1.0  0.9666880356169879  0.6934108669459353  0.458136161198291  1.0000
  S   S12       1.0  0.03331196399120022  0.30658913308769586  0.5418638391058676  1.0000
  Cl  Cl1       1.0  0.8740346844867423  0.31961509031674595  0.9440651471667515  1.0000
  Cl  Cl2       1.0  0.12596531655318965  0.6803849097152829  0.055934853138295555  1.0000
  Cl  Cl3       1.0  0.013721435956451863  0.5764523215095974  0.7581699063669783  1.0000
  Cl  Cl4       1.0  0.986278563651736  0.42354767852403397  0.24183009393718002  1.0000
  I   I1        1.0  0.8378794690112045  0.07224711191776204  0.8536966946322699  1.0000
  I   I2        1.0  0.1621205305969834  0.9277528881158693  0.14630330567188854  1.0000
