data_image0
_chemical_formula_structural       H72C76N8O16
_chemical_formula_sum              "H72 C76 N8 O16"
_cell_length_a       7.09907927991024
_cell_length_b       13.901323724802866
_cell_length_c       16.51100830902803
_cell_angle_alpha    78.57886691521863
_cell_angle_beta     85.0517819780888
_cell_angle_gamma    84.0643621639366

_space_group_name_H-M_alt    "P 1"
_space_group_IT_number       1

loop_
  _space_group_symop_operation_xyz
  'x, y, z'

loop_
  _atom_site_type_symbol
  _atom_site_label
  _atom_site_symmetry_multiplicity
  _atom_site_fract_x
  _atom_site_fract_y
  _atom_site_fract_z
  _atom_site_occupancy
  H   H1        1.0  0.6813751084633256  0.9165590300280244  0.8208610622522892  1.0000
  H   H2        1.0  0.3186248907708555  0.08344096994122326  0.179138938157624  1.0000
  H   H3        1.0  0.04786422543478946  0.12078623649607374  0.6716167881064822  1.0000
  H   H4        1.0  0.9521357752135092  0.8792137634699764  0.3283832122387015  1.0000
  H   H5        1.0  0.22417203441686936  0.8091388488914554  0.7185259974932527  1.0000
  H   H6        1.0  0.7758279647867556  0.190861151081699  0.2814740023116296  1.0000
  H   H7        1.0  0.7653958532832154  0.16875469747131153  0.7373029222051065  1.0000
  H   H8        1.0  0.2346041473650832  0.8312453024947388  0.26269707814007726  1.0000
  H   H9        1.0  0.41849925937435056  0.9314146905692429  0.644931913751874  1.0000
  H   H10       1.0  0.5815007398292743  0.06858530940391143  0.3550680860530083  1.0000
  H   H11       1.0  0.7463207146624938  0.6456560216235204  0.901819271509696  1.0000
  H   H12       1.0  0.25367928595524863  0.35434397834643655  0.09818072823045688  1.0000
  H   H13       1.0  0.46506271798534615  0.7480825357116946  0.20488251716599862  1.0000
  H   H14       1.0  0.5349372826323963  0.25191746425826234  0.7951174825741544  1.0000
  H   H15       1.0  0.8984196905014546  0.5084336113017391  0.1944285770034943  1.0000
  H   H16       1.0  0.10158031011628796  0.4915663886682177  0.8055714227366586  1.0000
  H   H17       1.0  0.36916106213197303  0.4558349559724788  0.3377892904372921  1.0000
  H   H18       1.0  0.630838937071652  0.5441650440006757  0.6622107093675902  1.0000
  H   H19       1.0  0.7619718749978238  0.7659525486036164  0.12460696208238502  1.0000
  H   H20       1.0  0.23802812561991848  0.23404745136634048  0.875393037657768  1.0000
  H   H21       1.0  0.817430992984361  0.35118659446311123  0.2616490446368244  1.0000
  H   H22       1.0  0.18256900624982014  0.6488134055061364  0.7383509557730887  1.0000
  H   H23       1.0  0.9213412087410063  0.6081898722969299  0.37815401686582345  1.0000
  H   H24       1.0  0.07865879187673605  0.3918101276730268  0.6218459828743296  1.0000
  H   H25       1.0  0.7569543510606414  0.5295246966581282  0.8135106723860793  1.0000
  H   H26       1.0  0.24304564817353977  0.47047530331111953  0.18648932802383364  1.0000
  H   H27       1.0  0.7315237468683244  0.5907981108564254  0.04981228223185963  1.0000
  H   H28       1.0  0.26847625233530037  0.4092018891167291  0.9501877175730228  1.0000
  H   H29       1.0  0.7847809905217293  0.34799849416077966  0.8672012419648084  1.0000
  H   H30       1.0  0.21521901009601302  0.6520015058091774  0.13279875777534464  1.0000
  H   H31       1.0  0.7501698720625389  0.4102386844485664  0.11424654823871032  1.0000
  H   H32       1.0  0.24983012855520345  0.5897613155213903  0.8857534515014426  1.0000
  H   H33       1.0  0.9417102208898189  0.2326169485670575  0.03410588176444082  1.0000
  H   H34       1.0  0.058289778344362164  0.7673830514021901  0.9658941186454724  1.0000
  H   H35       1.0  0.7339228019489554  0.24586387318673486  0.09823414791896716  1.0000
  H   H36       1.0  0.266077198668787  0.7541361267832221  0.9017658518211856  1.0000
  H   H37       1.0  0.7518105572828578  0.20027442113518953  0.9219790760901531  1.0000
  H   H38       1.0  0.24818944336544074  0.7997255788308607  0.07802092425503064  1.0000
  H   H39       1.0  0.5412922605474663  0.2168711070599365  0.984273687000679  1.0000
  H   H40       1.0  0.45870773868671494  0.7831288929093111  0.015726313409234045  1.0000
  H   H41       1.0  0.7653198782130247  0.036905934346863595  0.906442320697487  1.0000
  H   H42       1.0  0.23468012240471758  0.9630940656230933  0.09355767904266599  1.0000
  H   H43       1.0  0.6613710602696047  0.0988322179357193  0.15339300467730638  1.0000
  H   H44       1.0  0.3386289389645764  0.9011677820335283  0.8466069957326067  1.0000
  H   H45       1.0  0.7771424893579626  0.8581909108458794  0.9695433881779985  1.0000
  H   H46       1.0  0.22285750984566222  0.14180908912727502  0.03045661162688401  1.0000
  H   H47       1.0  0.6766540944193479  0.9192990229624336  0.20633239541212473  1.0000
  H   H48       1.0  0.32334590619839443  0.08070097700752345  0.7936676043280283  1.0000
  H   H49       1.0  0.7539379434251902  0.5230616725171701  0.5012261723958026  1.0000
  H   H50       1.0  0.24606205580899104  0.4769383274520776  0.49877382801411063  1.0000
  H   H51       1.0  0.8016578980466428  0.7613135323577824  0.3085526748803965  1.0000
  H   H52       1.0  0.1983421025710996  0.2386864676121746  0.6914473248597564  1.0000
  H   H53       1.0  0.4537130204422662  0.6014585267678532  0.561019775783172  1.0000
  H   H54       1.0  0.5462869787613588  0.3985414732053013  0.4389802240217105  1.0000
  H   H55       1.0  0.5055610772854675  0.8531410165278702  0.3623941121924971  1.0000
  H   H56       1.0  0.49443892194871364  0.14685898344137746  0.637605888217416  1.0000
  H   H57       1.0  0.3113308502417652  0.7975537699653303  0.5637128987507467  1.0000
  H   H58       1.0  0.6886691489618597  0.20244623000782405  0.4362871010541356  1.0000
  H   H59       1.0  0.24819349308750424  0.8566932909409232  0.4632228719343779  1.0000
  H   H60       1.0  0.7518065061161208  0.14330670903223136  0.5367771278705045  1.0000
  H   H61       1.0  0.14293813412437448  0.650852614903122  0.552426084149535  1.0000
  H   H62       1.0  0.8570618664933679  0.3491473850668349  0.447573915590618  1.0000
  H   H63       1.0  0.07990260595978259  0.7109514511011984  0.4521258542270282  1.0000
  H   H64       1.0  0.9200973946579599  0.2890485488687587  0.5478741455131245  1.0000
  H   H65       1.0  0.8756300682311092  0.6457920042263402  0.6466950444049523  1.0000
  H   H66       1.0  0.12436993238663324  0.3542079957436166  0.35330495533520073  1.0000
  H   H67       1.0  0.9415622160139572  0.913891969635532  0.4668140593285994  1.0000
  H   H68       1.0  0.05843778460378523  0.08610803033442489  0.5331859404115536  1.0000
  H   H69       1.0  0.5794466069771531  0.7297688065745792  0.7035529690794305  1.0000
  H   H70       1.0  0.42055339364058925  0.2702311933953779  0.2964470306607225  1.0000
  H   H71       1.0  0.6480377023147301  0.9864268134230973  0.531701002096726  1.0000
  H   H72       1.0  0.35196229830301234  0.013573186546859546  0.4682989976434269  1.0000
  C   C1        1.0  0.9481322202503808  0.8534270339885849  0.7731406089580812  1.0000
  C   C2        1.0  0.0518677789838003  0.1465729659806627  0.22685939145183198  1.0000
  C   C3        1.0  0.813216083971462  0.931251257163087  0.7840429443317263  1.0000
  C   C4        1.0  0.1867839152321629  0.0687487428100675  0.215957055473156  1.0000
  C   C5        1.0  0.8486602150381014  0.027890544993565556  0.7470856554510125  1.0000
  C   C6        1.0  0.15133978561019734  0.9721094549724846  0.2529143448941712  1.0000
  C   C7        1.0  0.01903153061434799  0.04565747657362484  0.6996646799323377  1.0000
  C   C8        1.0  0.9809684684700865  0.9543425241362852  0.30033531975728783  1.0000
  C   C9        1.0  0.15601562381999703  0.9675518844585155  0.6901168454561237  1.0000
  C   C10       1.0  0.8439843753836278  0.032448115514638824  0.3098831543487586  1.0000
  C   C11       1.0  0.11960736997319094  0.8703857974281969  0.7260459723479941  1.0000
  C   C12       1.0  0.880392629230434  0.12961420254495742  0.2739540274568883  1.0000
  C   C13       1.0  0.9057441374358454  0.7511254563687059  0.8139467208315104  1.0000
  C   C14       1.0  0.09425586321245316  0.24887454359734446  0.18605327951367326  1.0000
  C   C15       1.0  0.40098676675945083  0.6053431195795854  0.27697369602030253  1.0000
  C   C16       1.0  0.5990132338888479  0.39465688038646474  0.7230263043248812  1.0000
  C   C17       1.0  0.5146856401791753  0.6707000977596879  0.22345867328003585  1.0000
  C   C18       1.0  0.4853143604385672  0.3292999022102691  0.7765413264601171  1.0000
  C   C19       1.0  0.6937246936491684  0.6347696990428523  0.19274716892317326  1.0000
  C   C20       1.0  0.3062753069991301  0.36523030092319786  0.8072528314220105  1.0000
  C   C21       1.0  0.7583274852952514  0.5350158927292847  0.21733775894206436  1.0000
  C   C22       1.0  0.24167251390837358  0.4649841072438697  0.7826622408628179  1.0000
  C   C23       1.0  0.642868084444898  0.4700134780287045  0.269727750427489  1.0000
  C   C24       1.0  0.35713191475872696  0.52998652194445  0.7302722493773934  1.0000
  C   C25       1.0  0.4631675135872679  0.5055535419228679  0.299038664186583  1.0000
  C   C26       1.0  0.5368324856469134  0.4944464580463797  0.7009613362233301  1.0000
  C   C27       1.0  0.20644609759188323  0.638698761971671  0.3102502043476828  1.0000
  C   C28       1.0  0.7935539030258593  0.36130123799828595  0.6897497953924702  1.0000
  C   C29       1.0  0.7549414058259059  0.49871621164031066  0.8794642824198554  1.0000
  C   C30       1.0  0.24505859479183656  0.5012837883296463  0.12053571732029751  1.0000
  C   C31       1.0  0.7386596808393164  0.5334263678155072  0.012989251679897373  1.0000
  C   C32       1.0  0.26134031980898204  0.466573632150543  0.9870107486652865  1.0000
  C   C33       1.0  0.7689509932120194  0.3983451579889091  0.9103476892792705  1.0000
  C   C34       1.0  0.23104900743627912  0.601654841977141  0.08965231106591319  1.0000
  C   C35       1.0  0.7497024348586754  0.43389136294925873  0.0474402714648495  1.0000
  C   C36       1.0  0.25029756434494976  0.5661086370238957  0.952559728340033  1.0000
  C   C37       1.0  0.7671582674940104  0.36388580311354674  0.996113722923403  1.0000
  C   C38       1.0  0.2328417317401707  0.6361141968557008  0.0038862774865101412  1.0000
  C   C39       1.0  0.7885804018578025  0.2560982112198361  0.03315030668470982  1.0000
  C   C40       1.0  0.2114195987599398  0.7439017887501208  0.9668496930554431  1.0000
  C   C41       1.0  0.6935775843611037  0.19156956305702322  0.9865435620813807  1.0000
  C   C42       1.0  0.3064224162566387  0.8084304369129337  0.013456437658772401  1.0000
  C   C43       1.0  0.7115571781657027  0.0836043021684895  0.024420086693401583  1.0000
  C   C44       1.0  0.28844282103792224  0.9163956978046649  0.9755799131114808  1.0000
  C   C45       1.0  0.7468538080944515  0.013594841430616761  0.9733676972180733  1.0000
  C   C46       1.0  0.2531461911397297  0.986405158538631  0.026632303191839915  1.0000
  C   C47       1.0  0.6876748590183362  0.04874090384497692  0.10985002258829879  1.0000
  C   C48       1.0  0.3123251401852886  0.9512590961281775  0.8901499772165836  1.0000
  C   C49       1.0  0.753959240653419  0.9139970006902264  0.008488251584950219  1.0000
  C   C50       1.0  0.2460407585502058  0.08600299928292801  0.9915117482199322  1.0000
  C   C51       1.0  0.6976416267282852  0.9477215314060317  0.14011776038081408  1.0000
  C   C52       1.0  0.30235837388945724  0.05227846856392525  0.8598822393593389  1.0000
  C   C53       1.0  0.6887618657842677  0.5943665064118426  0.47156427063145534  1.0000
  C   C54       1.0  0.31123813483347484  0.40563349355811423  0.5284357291086976  1.0000
  C   C55       1.0  0.714890019700533  0.7304583764281284  0.36324701466678055  1.0000
  C   C56       1.0  0.2851099809477656  0.26954162353792177  0.6367529856784031  1.0000
  C   C57       1.0  0.5242313978871695  0.6389213254006915  0.5041822502578924  1.0000
  C   C58       1.0  0.47576860273057275  0.3610786745692655  0.49581774948226054  1.0000
  C   C59       1.0  0.5529355671360359  0.7794418600748523  0.39416376891688626  1.0000
  C   C60       1.0  0.4470644335122627  0.22055813989119788  0.6058362314282973  1.0000
  C   C61       1.0  0.45432736969521  0.7337479063280204  0.4660656840637957  1.0000
  C   C62       1.0  0.5456726309530886  0.2662520936380297  0.5339343162813879  1.0000
  C   C63       1.0  0.28069337935020267  0.784440907197868  0.5027737143199142  1.0000
  C   C64       1.0  0.7193066198534223  0.2155590927752864  0.49722628548496806  1.0000
  C   C65       1.0  0.10887416057339996  0.7233524761598609  0.513517371478493  1.0000
  C   C66       1.0  0.8911258386607812  0.27664752380938673  0.48648262893142  1.0000
  C   C67       1.0  0.9343393003446255  0.7724408266379201  0.5515666049329214  1.0000
  C   C68       1.0  0.0656607002731169  0.22755917333203685  0.4484333948072316  1.0000
  C   C69       1.0  0.8294142469155887  0.7215671524181787  0.6192616682341776  1.0000
  C   C70       1.0  0.17058575370215373  0.27843284755177833  0.38073833150597547  1.0000
  C   C71       1.0  0.8687269343189177  0.8700584368039241  0.5200325395622141  1.0000
  C   C72       1.0  0.13127306488470716  0.12994156316923022  0.47996746024266834  1.0000
  C   C73       1.0  0.6654996850949626  0.7683005397374645  0.6516994413209816  1.0000
  C   C74       1.0  0.3345003141086623  0.23169946023568988  0.3483005584839009  1.0000
  C   C75       1.0  0.7039130748815062  0.91111910738535  0.5560773782091362  1.0000
  C   C76       1.0  0.29608692432211886  0.08888089258780449  0.44392262159574625  1.0000
  N   N1        1.0  0.7408527506612025  0.563693697374684  0.9304524338491105  1.0000
  N   N2        1.0  0.2591472499565401  0.43630630259527287  0.0695475658910426  1.0000
  N   N3        1.0  0.7297357982015461  0.880871465694665  0.09071906800357554  1.0000
  N   N4        1.0  0.27026420244675253  0.11912853427138517  0.9092809323416082  1.0000
  N   N5        1.0  0.7801742474491706  0.6404643726185438  0.4021722919501685  1.0000
  N   N6        1.0  0.21982575178501038  0.35953562735070393  0.5978277084597446  1.0000
  N   N7        1.0  0.6026091062148339  0.8616374441177725  0.620601144735809  1.0000
  N   N8        1.0  0.39739089443346465  0.13836255584827772  0.37939885560937475  1.0000
  O   O1        1.0  0.7157247766947583  0.10211595219091926  0.7598203843227391  1.0000
  O   O2        1.0  0.2842752225088666  0.8978840477822352  0.24017961548214317  1.0000
  O   O3        1.0  0.32083688212324946  0.9913292320930589  0.6467736829763353  1.0000
  O   O4        1.0  0.6791631184944928  0.00867076787689807  0.3532263167638176  1.0000
  O   O5        1.0  0.7616370486240014  0.7437329532323421  0.867314686221385  1.0000
  O   O6        1.0  0.2383629520242973  0.25626704673370804  0.1326853141237987  1.0000
  O   O7        1.0  0.007304153060822831  0.6763306725717345  0.7965909376714082  1.0000
  O   O8        1.0  0.9926958475569195  0.3236693273982224  0.20340906206874468  1.0000
  O   O9        1.0  0.8103295445252682  0.6915256455088169  0.1388295935110892  1.0000
  O   O10       1.0  0.18967045609247413  0.30847435446114  0.8611704062290637  1.0000
  O   O11       1.0  0.6969612767163574  0.3724326754030616  0.2939162195914183  1.0000
  O   O12       1.0  0.30303872393194137  0.6275673245629886  0.7060837807537654  1.0000
  O   O13       1.0  0.14637907825061777  0.7292846983737363  0.29650459438614424  1.0000
  O   O14       1.0  0.8536209209530071  0.2707153015994181  0.7034954054187381  1.0000
  O   O15       1.0  0.10770416236749776  0.5708940317114051  0.3522914219728848  1.0000
  O   O16       1.0  0.8922958368361272  0.4291059682617494  0.6477085778319975  1.0000
