data_image0
_chemical_formula_structural       H22C46O4Cl8
_chemical_formula_sum              "H22 C46 O4 Cl8"
_cell_length_a       7.151280585431542
_cell_length_b       9.00527286737779
_cell_length_c       14.670004218071771
_cell_angle_alpha    94.64290040742385
_cell_angle_beta     98.30816885297784
_cell_angle_gamma    90.13300480959904

_space_group_name_H-M_alt    "P 1"
_space_group_IT_number       1

loop_
  _space_group_symop_operation_xyz
  'x, y, z'

loop_
  _atom_site_type_symbol
  _atom_site_label
  _atom_site_symmetry_multiplicity
  _atom_site_fract_x
  _atom_site_fract_y
  _atom_site_fract_z
  _atom_site_occupancy
  H   H1        1.0  0.2430802860488384  0.6237207595331958  0.9563957680451004  1.0000
  H   H2        1.0  0.7569197136536499  0.3762792410423196  0.043604231657709845  1.0000
  H   H3        1.0  0.2697147484724781  0.8664079774754123  0.5811621468987082  1.0000
  H   H4        1.0  0.7302852512300101  0.13359202310010318  0.41883785280410213  1.0000
  H   H5        1.0  0.08963137758720556  0.369577806108791  0.8908475366602191  1.0000
  H   H6        1.0  0.9103686223216167  0.6304221934433054  0.10915246373122933  1.0000
  H   H7        1.0  0.815360249087842  0.40802772964162887  0.5585030488037412  1.0000
  H   H8        1.0  0.18463975082098025  0.5919722699104674  0.44149695158770713  1.0000
  H   H9        1.0  0.8322669986055653  0.647601250805305  0.530115548391108  1.0000
  H   H10       1.0  0.1677330010969229  0.3523987497702104  0.46988445131170237  1.0000
  H   H11       1.0  0.14334176294800308  0.9829530858378505  0.7107880279309696  1.0000
  H   H12       1.0  0.8566582367393437  0.017046913626907984  0.289211971769302  1.0000
  H   H13       1.0  0.3252117308049783  0.10658946376674246  0.518607167516304  1.0000
  H   H14       1.0  0.6747882688975099  0.8934105368087729  0.4813928321865063  1.0000
  H   H15       1.0  0.29938056126865104  0.06561872078471188  0.8676491020256466  1.0000
  H   H16       1.0  0.7006194384186958  0.9343812786800466  0.13235089767462502  1.0000
  H   H17       1.0  0.7968707852183511  0.17097274154313233  0.6310810911516219  1.0000
  H   H18       1.0  0.20312921469047118  0.8290272580089638  0.3689189092398264  1.0000
  H   H19       1.0  0.3604457453520093  0.8866900451315127  0.9883882910841628  1.0000
  H   H20       1.0  0.6395542543353375  0.11330995433324582  0.011611708616108902  1.0000
  H   H21       1.0  0.9264720088821977  0.15132232658516787  0.7956222964979717  1.0000
  H   H22       1.0  0.07352799102662469  0.8486776729669284  0.2043777038934768  1.0000
  C   C1        1.0  0.5590197134181936  0.47400261940484273  0.8136114858219952  1.0000
  C   C2        1.0  0.44098028790155175  0.5259973812481386  0.18638851456389322  1.0000
  C   C3        1.0  0.6714677349266293  0.7442827681208561  0.8350615482571284  1.0000
  C   C4        1.0  0.32853226639311583  0.25571723253212497  0.16493845212875988  1.0000
  C   C5        1.0  0.5126049169841524  0.6351514402096963  0.6823788214705894  1.0000
  C   C6        1.0  0.48739508292466976  0.3648485593424  0.317621178920859  1.0000
  C   C7        1.0  0.6029796385400451  0.7615960390536286  0.7452260267668323  1.0000
  C   C8        1.0  0.39702036136877705  0.2384039604984676  0.2547739736246161  1.0000
  C   C9        1.0  0.6563975342594852  0.5986910155345346  0.875368901882543  1.0000
  C   C10       1.0  0.3436024656493371  0.40130898401756165  0.12463109850890539  1.0000
  C   C11       1.0  0.49472444908722396  0.48998106112152  0.7231813087321401  1.0000
  C   C12       1.0  0.5052755508215983  0.5100189384305762  0.2768186916593083  1.0000
  C   C13       1.0  0.9661035200773492  0.5234233810142562  0.6837581938154328  1.0000
  C   C14       1.0  0.03389647983147317  0.47657661853784  0.3162418065760157  1.0000
  C   C15       1.0  0.10635425766233704  0.754666751092887  0.7427066144700512  1.0000
  C   C16       1.0  0.8936457420250099  0.2453332483718716  0.2572933852302206  1.0000
  C   C17       1.0  0.04467594212249858  0.5112235801321781  0.7772423811064483  1.0000
  C   C18       1.0  0.9553240575799895  0.4887764204433373  0.22275761859636198  1.0000
  C   C19       1.0  0.1310077955884521  0.6550574787685234  0.8140946774021197  1.0000
  C   C20       1.0  0.868992204114036  0.34494252180699203  0.1859053223006905  1.0000
  C   C21       1.0  0.002024713756682011  0.6751164060514094  0.6587149398972542  1.0000
  C   C22       1.0  0.9979752861672816  0.3248835946114438  0.3412850604967328  1.0000
  C   C23       1.0  0.9676607388310079  0.8640382546666584  0.5382755999782431  1.0000
  C   C24       1.0  0.03233926225212049  0.1359617447882282  0.4617243997139299  1.0000
  C   C25       1.0  0.2226565444429174  0.7008016695618948  0.9023310589646719  1.0000
  C   C26       1.0  0.7773434554810463  0.2991983311009583  0.0976689414293152  1.0000
  C   C27       1.0  0.15070255894174364  0.9268868189376505  0.5476506290776689  1.0000
  C   C28       1.0  0.8492974409670786  0.07311318061444587  0.45234937131377956  1.0000
  C   C29       1.0  0.031332878001626846  0.37817016941113296  0.8185684351875687  1.0000
  C   C30       1.0  0.9686671217008614  0.6218298311643824  0.18143156451524148  1.0000
  C   C31       1.0  0.8766425255911632  0.40116890678445993  0.6306260314238064  1.0000
  C   C32       1.0  0.12335747409618371  0.5988310926802987  0.36937396827646535  1.0000
  C   C33       1.0  0.9317931246278265  0.7233733105105135  0.5751991335183274  1.0000
  C   C34       1.0  0.06820687528099569  0.2766266890415827  0.424800866873121  1.0000
  C   C35       1.0  0.16546382672707632  0.903320073595593  0.7630989134024204  1.0000
  C   C36       1.0  0.8345361729602705  0.09667992586916564  0.23690108629785128  1.0000
  C   C37       1.0  0.18181437861365998  0.06081286041171677  0.5112981525172762  1.0000
  C   C38       1.0  0.8181856224694686  0.9391871390431699  0.4887018471748968  1.0000
  C   C39       1.0  0.2543360405354594  0.9495882635321395  0.8520253061327927  1.0000
  C   C40       1.0  0.7456639591518875  0.05041173593261911  0.14797469356747897  1.0000
  C   C41       1.0  0.865690936419135  0.26747878137991726  0.6720357632047939  1.0000
  C   C42       1.0  0.13430906328335318  0.7325212191955982  0.3279642364980165  1.0000
  C   C43       1.0  0.2862650765440938  0.8487753463264016  0.9202429973779191  1.0000
  C   C44       1.0  0.7137349233798699  0.15122465433645152  0.07975700301606782  1.0000
  C   C45       1.0  0.9406210289836417  0.2561889441182356  0.7648105898291381  1.0000
  C   C46       1.0  0.059378972099486664  0.7438110553366508  0.23518940986303494  1.0000
  O   O1        1.0  0.45402966189919863  0.6496468264580559  0.6005968884263653  1.0000
  O   O2        1.0  0.5459703380096237  0.3503531730940402  0.39940311196508316  1.0000
  O   O3        1.0  0.7215863529220005  0.5828647881234932  0.9561515584975281  1.0000
  O   O4        1.0  0.2784136469868218  0.41713521142860316  0.04384844189392043  1.0000
  Cl  Cl1       1.0  0.7792188651547286  0.8846024731410311  0.9080722582262993  1.0000
  Cl  Cl2       1.0  0.22078113475409367  0.11539752641106513  0.091927742165149  1.0000
  Cl  Cl3       1.0  0.6168287654997021  0.9273462361617466  0.6985869918248802  1.0000
  Cl  Cl4       1.0  0.3831712344091202  0.07265376339034961  0.30141300856656833  1.0000
  Cl  Cl5       1.0  0.3857174776664242  0.349215324563514  0.6510143678378582  1.0000
  Cl  Cl6       1.0  0.614282522036064  0.6507846760120014  0.34898563186495213  1.0000
  Cl  Cl7       1.0  0.5319613678666388  0.31286194029267467  0.8630853259211868  1.0000
  Cl  Cl8       1.0  0.46803863183584926  0.6871380602828409  0.13691467378162345  1.0000
