data_image0
_chemical_formula_structural       H60C72N12O16F8
_chemical_formula_sum              "H60 C72 N12 O16 F8"
_cell_length_a       12.67673482979106
_cell_length_b       34.558875220035446
_cell_length_c       3.7312759877591204
_cell_angle_alpha    90.0
_cell_angle_beta     90.0
_cell_angle_gamma    90.0

_space_group_name_H-M_alt    "P 1"
_space_group_IT_number       1

loop_
  _space_group_symop_operation_xyz
  'x, y, z'

loop_
  _atom_site_type_symbol
  _atom_site_label
  _atom_site_symmetry_multiplicity
  _atom_site_fract_x
  _atom_site_fract_y
  _atom_site_fract_z
  _atom_site_occupancy
  H   H1        1.0  0.364734095339297  0.3223498368818895  0.1528273469640791  1.0000
  H   H2        1.0  0.13526590506336736  0.6776501631170848  0.6528273459243381  1.0000
  H   H3        1.0  0.6352659046771851  0.8223498368813766  0.8471726536364874  1.0000
  H   H4        1.0  0.8647340949531148  0.17765016311759763  0.34717265199618  1.0000
  H   H5        1.0  0.6352659046771851  0.6776501631170848  0.8471726536364874  1.0000
  H   H6        1.0  0.8647340949531148  0.3223498368818895  0.34717265199618  1.0000
  H   H7        1.0  0.364734095339297  0.17765016311759763  0.1528273469640791  1.0000
  H   H8        1.0  0.13526590506336736  0.8223498368813766  0.6528273459243381  1.0000
  H   H9        1.0  0.7703061901280573  0.43730815409288365  0.4913459915628077  1.0000
  H   H10       1.0  0.7296938095022425  0.5626918459060907  0.9913459905230668  1.0000
  H   H11       1.0  0.22969380988842475  0.9373081540923708  0.5086540090377587  1.0000
  H   H12       1.0  0.27030619051423965  0.0626918459066035  0.008654010077499679  1.0000
  H   H13       1.0  0.22969380988842475  0.5626918459060907  0.5086540090377587  1.0000
  H   H14       1.0  0.27030619051423965  0.43730815409288365  0.008654010077499679  1.0000
  H   H15       1.0  0.7703061901280573  0.0626918459066035  0.4913459915628077  1.0000
  H   H16       1.0  0.7296938095022425  0.9373081540923708  0.9913459905230668  1.0000
  H   H17       1.0  0.458034899992911  0.47404674705680994  0.788302800342167  1.0000
  H   H18       1.0  0.0419651004097534  0.5259532529421643  0.2883028013819079  1.0000
  H   H19       1.0  0.5419651000235711  0.9740467470562971  0.21169719757835118  1.0000
  H   H20       1.0  0.9580348996067288  0.025953252942677224  0.7116971992186586  1.0000
  H   H21       1.0  0.5419651000235711  0.5259532529421643  0.21169719757835118  1.0000
  H   H22       1.0  0.9580348996067288  0.47404674705680994  0.7116971992186586  1.0000
  H   H23       1.0  0.458034899992911  0.025953252942677224  0.788302800342167  1.0000
  H   H24       1.0  0.0419651004097534  0.9740467470562971  0.2883028013819079  1.0000
  H   H25       1.0  0.3845172424483333  0.41153458205592064  0.5599791215805631  1.0000
  H   H26       1.0  0.11548275716548446  0.5884654179430536  0.05997912262030394  1.0000
  H   H27       1.0  0.6154827575681489  0.9115345820554078  0.4400208790200035  1.0000
  H   H28       1.0  0.8845172428509978  0.08846541794356651  0.9400208779802626  1.0000
  H   H29       1.0  0.6154827575681489  0.5884654179430536  0.4400208790200035  1.0000
  H   H30       1.0  0.8845172428509978  0.41153458205592064  0.9400208779802626  1.0000
  H   H31       1.0  0.3845172424483333  0.08846541794356651  0.5599791215805631  1.0000
  H   H32       1.0  0.11548275716548446  0.9115345820554078  0.05997912262030394  1.0000
  H   H33       1.0  0.6978006630865053  0.3741968295456213  0.2755867117236634  1.0000
  H   H34       1.0  0.8021993373326413  0.625803170453353  0.7755867106839224  1.0000
  H   H35       1.0  0.30219933692997675  0.8741968295451085  0.7244132888769031  1.0000
  H   H36       1.0  0.19780066268384103  0.12580317045386585  0.22441328723659573  1.0000
  H   H37       1.0  0.30219933692997675  0.625803170453353  0.7244132888769031  1.0000
  H   H38       1.0  0.19780066268384103  0.3741968295456213  0.22441328723659573  1.0000
  H   H39       1.0  0.6978006630865053  0.12580317045386585  0.2755867117236634  1.0000
  H   H40       1.0  0.8021993373326413  0.8741968295451085  0.7755867106839224  1.0000
  H   H41       1.0  0.49517179654561416  0.275763366120057  0.29586120501983804  1.0000
  H   H42       1.0  0.00482820306820355  0.7242366338789172  0.7958612039800972  1.0000
  H   H43       1.0  0.504828203470868  0.7757633661195441  0.7041387955807284  1.0000
  H   H44       1.0  0.9951717969482787  0.22423663387943016  0.20413879662046935  1.0000
  H   H45       1.0  0.504828203470868  0.7242366338789172  0.7041387955807284  1.0000
  H   H46       1.0  0.9951717969482787  0.275763366120057  0.20413879662046935  1.0000
  H   H47       1.0  0.49517179654561416  0.22423663387943016  0.29586120501983804  1.0000
  H   H48       1.0  0.00482820306820355  0.7757633661195441  0.7958612039800972  1.0000
  H   H49       1.0  0.19220733120282205  0.312271872313237  0.7825023368891812  1.0000
  H   H50       1.0  0.30779266841099573  0.6877281276857373  0.2825023379289222  1.0000
  H   H51       1.0  0.8077926688136601  0.8122718723127242  0.21749766103133691  1.0000
  H   H52       1.0  0.6922073316054865  0.18772812768625013  0.7174976626716443  1.0000
  H   H53       1.0  0.8077926688136601  0.6877281276857373  0.21749766103133691  1.0000
  H   H54       1.0  0.6922073316054865  0.312271872313237  0.7174976626716443  1.0000
  H   H55       1.0  0.19220733120282205  0.18772812768625013  0.7825023368891812  1.0000
  H   H56       1.0  0.30779266841099573  0.8122718723127242  0.2825023379289222  1.0000
  H   H57       1.0  0.10206273992254243  0.24999900011187745  0.6090822221287576  1.0000
  H   H58       1.0  0.39793725969127536  0.7500009998870968  0.10908222316849847  1.0000
  H   H59       1.0  0.8979372600939397  0.7499990001113646  0.3909177757917606  1.0000
  H   H60       1.0  0.6020627403252068  0.2500009998876097  0.890917777432068  1.0000
  C   C1        1.0  0.6864244844461593  0.43092064528090634  0.508667562042191  1.0000
  C   C2        1.0  0.8135755151841406  0.5690793547180679  0.008667563081931916  1.0000
  C   C3        1.0  0.3135755155703228  0.9309206452803935  0.4913324385583755  1.0000
  C   C4        1.0  0.1864244848323416  0.06907935471858077  0.9913324375186346  1.0000
  C   C5        1.0  0.3135755155703228  0.5690793547180679  0.4913324385583755  1.0000
  C   C6        1.0  0.1864244848323416  0.43092064528090634  0.9913324375186346  1.0000
  C   C7        1.0  0.6864244844461593  0.06907935471858077  0.508667562042191  1.0000
  C   C8        1.0  0.8135755151841406  0.9309206452803935  0.008667563081931916  1.0000
  C   C9        1.0  0.6172961638047435  0.45811811666895336  0.650821788033539  1.0000
  C   C10       1.0  0.8827038366144031  0.541881883330021  0.15082178907327984  1.0000
  C   C11       1.0  0.38270383621173865  0.9581181166684405  0.34917820988697923  1.0000
  C   C12       1.0  0.11729616340207913  0.041881883330533796  0.8491782115272866  1.0000
  C   C13       1.0  0.38270383621173865  0.541881883330021  0.34917820988697923  1.0000
  C   C14       1.0  0.11729616340207913  0.45811811666895336  0.8491782115272866  1.0000
  C   C15       1.0  0.6172961638047435  0.041881883330533796  0.650821788033539  1.0000
  C   C16       1.0  0.8827038366144031  0.9581181166684405  0.15082178907327984  1.0000
  C   C17       1.0  0.5091058570408207  0.45208079402255424  0.6726901007146935  1.0000
  C   C18       1.0  0.9908941433783258  0.54791920597642  0.17269010175443433  1.0000
  C   C19       1.0  0.4908941429756615  0.9520807940220414  0.32730989988587306  1.0000
  C   C20       1.0  0.009105856638156292  0.047919205976932874  0.8273098988461322  1.0000
  C   C21       1.0  0.4908941429756615  0.54791920597642  0.32730989988587306  1.0000
  C   C22       1.0  0.009105856638156292  0.45208079402255424  0.8273098988461322  1.0000
  C   C23       1.0  0.5091058570408207  0.047919205976932874  0.6726901007146935  1.0000
  C   C24       1.0  0.9908941433783258  0.9520807940220414  0.17269010175443433  1.0000
  C   C25       1.0  0.4688851387844301  0.4172156995329783  0.5461536982751749  1.0000
  C   C26       1.0  0.03111486161823432  0.5827843004659959  0.04615369931491582  1.0000
  C   C27       1.0  0.5311148612320521  0.9172156995324654  0.45384629964534323  1.0000
  C   C28       1.0  0.9688851383982479  0.0827843004665088  0.9538463012856507  1.0000
  C   C29       1.0  0.5311148612320521  0.5827843004659959  0.45384629964534323  1.0000
  C   C30       1.0  0.9688851383982479  0.4172156995329783  0.9538463012856507  1.0000
  C   C31       1.0  0.4688851387844301  0.0827843004665088  0.5461536982751749  1.0000
  C   C32       1.0  0.03111486161823432  0.9172156995324654  0.04615369931491582  1.0000
  C   C33       1.0  0.4939281269247155  0.3514645118704052  0.2737335199408296  1.0000
  C   C34       1.0  0.006071873477948947  0.6485354881285691  0.7737335215811371  1.0000
  C   C35       1.0  0.5060718730917667  0.8514645118698924  0.7262664779796886  1.0000
  C   C36       1.0  0.9939281265385331  0.14853548812908196  0.22626647901942948  1.0000
  C   C37       1.0  0.5060718730917667  0.6485354881285691  0.7262664779796886  1.0000
  C   C38       1.0  0.9939281265385331  0.3514645118704052  0.22626647901942948  1.0000
  C   C39       1.0  0.4939281269247155  0.14853548812908196  0.2737335199408296  1.0000
  C   C40       1.0  0.006071873477948947  0.8514645118698924  0.7737335215811371  1.0000
  C   C41       1.0  0.5363154890660482  0.38890205698037805  0.4047546134230093  1.0000
  C   C42       1.0  0.9636845105642518  0.6110979430185962  0.9047546123832683  1.0000
  C   C43       1.0  0.46368451095043395  0.8889020569798652  0.5952453871775572  1.0000
  C   C44       1.0  0.03631548945223048  0.11109794301910911  0.09524538553724979  1.0000
  C   C45       1.0  0.46368451095043395  0.6110979430185962  0.5952453871775572  1.0000
  C   C46       1.0  0.03631548945223048  0.38890205698037805  0.09524538553724979  1.0000
  C   C47       1.0  0.5363154890660482  0.11109794301910911  0.4047546134230093  1.0000
  C   C48       1.0  0.9636845105642518  0.8889020569798652  0.9047546123832683  1.0000
  C   C49       1.0  0.645164637409616  0.395966269239765  0.3876352338301954  1.0000
  C   C50       1.0  0.8548353622206839  0.6040337307592093  0.8876352327904544  1.0000
  C   C51       1.0  0.3548353626068661  0.8959662692392523  0.6123647667703711  1.0000
  C   C52       1.0  0.1451646377957983  0.10403373075972212  0.11236476781011202  1.0000
  C   C53       1.0  0.3548353626068661  0.6040337307592093  0.6123647667703711  1.0000
  C   C54       1.0  0.1451646377957983  0.395966269239765  0.11236476781011202  1.0000
  C   C55       1.0  0.645164637409616  0.10403373075972212  0.3876352338301954  1.0000
  C   C56       1.0  0.8548353622206839  0.8959662692392523  0.8876352327904544  1.0000
  C   C57       1.0  0.3631717387651534  0.2500000001444242  0.10777666174233187  1.0000
  C   C58       1.0  0.13682826084866437  0.7500000001439113  0.607776660702591  1.0000
  C   C59       1.0  0.6368282612513289  0.7500000001439113  0.8922233388582346  1.0000
  C   C60       1.0  0.8631717391678178  0.2500000001444242  0.39222333989797553  1.0000
  C   C61       1.0  0.22668448923036782  0.2842554868309144  0.8472877509923006  1.0000
  C   C62       1.0  0.27331551117229663  0.71574451316806  0.3472877520320415  1.0000
  C   C63       1.0  0.7733155107861144  0.7842554868304015  0.152712249608266  1.0000
  C   C64       1.0  0.7266844888441856  0.21574451316857274  0.652712248568525  1.0000
  C   C65       1.0  0.7733155107861144  0.71574451316806  0.152712249608266  1.0000
  C   C66       1.0  0.7266844888441856  0.2842554868309144  0.652712248568525  1.0000
  C   C67       1.0  0.22668448923036782  0.21574451316857274  0.8472877509923006  1.0000
  C   C68       1.0  0.27331551117229663  0.7842554868304015  0.3472877520320415  1.0000
  C   C69       1.0  0.17658896790514442  0.2500000001444242  0.75116117092246  1.0000
  C   C70       1.0  0.32341103249752  0.7500000001439113  0.25116116928215265  1.0000
  C   C71       1.0  0.8234110321113378  0.7500000001439113  0.2488388296781064  1.0000
  C   C72       1.0  0.6765889675189622  0.2500000001444242  0.7488388286383655  1.0000
  N   N1        1.0  0.3185303387833469  0.28454388163359656  0.023412907618357518  1.0000
  N   N2        1.0  0.1814696616193175  0.7154561183653777  0.5234129092586649  1.0000
  N   N3        1.0  0.6814696612331352  0.7845438816330838  0.9765870903021606  1.0000
  N   N4        1.0  0.8185303383971647  0.21545611836589057  0.4765870913419015  1.0000
  N   N5        1.0  0.6814696612331352  0.7154561183653777  0.9765870903021606  1.0000
  N   N6        1.0  0.8185303383971647  0.28454388163359656  0.4765870913419015  1.0000
  N   N7        1.0  0.3185303387833469  0.21545611836589057  0.023412907618357518  1.0000
  N   N8        1.0  0.1814696616193175  0.7845438816330838  0.5234129092586649  1.0000
  N   N9        1.0  0.4543630538412812  0.2500000001444242  0.28992245643284115  1.0000
  N   N10       1.0  0.04563694656138322  0.7500000001439113  0.7899224553931002  1.0000
  N   N11       1.0  0.545636946175201  0.7500000001439113  0.7100775441677253  1.0000
  N   N12       1.0  0.954363053455099  0.2500000001444242  0.21007754520746624  1.0000
  O   O1        1.0  0.38977467197532595  0.35001489756203913  0.2522169850440862  1.0000
  O   O2        1.0  0.11022532842733845  0.6499851024369352  0.7522169866843936  1.0000
  O   O3        1.0  0.6102253280411563  0.8500148975615263  0.7477830155564803  1.0000
  O   O4        1.0  0.8897746715891438  0.149985102437448  0.2477830139161729  1.0000
  O   O5        1.0  0.6102253280411563  0.6499851024369352  0.7477830155564803  1.0000
  O   O6        1.0  0.8897746715891438  0.35001489756203913  0.2477830139161729  1.0000
  O   O7        1.0  0.38977467197532595  0.149985102437448  0.2522169850440862  1.0000
  O   O8        1.0  0.11022532842733845  0.8500148975615263  0.7522169866843936  1.0000
  O   O9        1.0  0.5525152938862445  0.3238679366367561  0.19306610992145823  1.0000
  O   O10       1.0  0.9474847057440553  0.6761320633622182  0.6930661115617657  1.0000
  O   O11       1.0  0.44748470613023766  0.8238679366362432  0.8069338906791083  1.0000
  O   O12       1.0  0.05251529427242682  0.17613206336273107  0.30693388903880087  1.0000
  O   O13       1.0  0.44748470613023766  0.6761320633622182  0.8069338906791083  1.0000
  O   O14       1.0  0.05251529427242682  0.3238679366367561  0.30693388903880087  1.0000
  O   O15       1.0  0.5525152938862445  0.17613206336273107  0.19306610992145823  1.0000
  O   O16       1.0  0.9474847057440553  0.8238679366362432  0.6930661115617657  1.0000
  F   F1        1.0  0.6574267697399934  0.49225337866718194  0.7750266717034623  1.0000
  F   F2        1.0  0.8425732306791532  0.5077466213317924  0.27502667006315484  1.0000
  F   F3        1.0  0.3425732302764889  0.9922533786666691  0.2249733288971042  1.0000
  F   F4        1.0  0.15742676933732885  0.007746621332305196  0.7249733305374116  1.0000
  F   F5        1.0  0.3425732302764889  0.5077466213317924  0.2249733288971042  1.0000
  F   F6        1.0  0.15742676933732885  0.49225337866718194  0.7249733305374116  1.0000
  F   F7        1.0  0.6574267697399934  0.007746621332305196  0.7750266717034623  1.0000
  F   F8        1.0  0.8425732306791532  0.9922533786666691  0.27502667006315484  1.0000
