data_image0
_chemical_formula_structural       H60C72N12O16Br8
_chemical_formula_sum              "H60 C72 N12 O16 Br8"
_cell_length_a       12.833897342706399
_cell_length_b       36.86723580610357
_cell_length_c       3.8226794311667693
_cell_angle_alpha    90.0
_cell_angle_beta     90.0
_cell_angle_gamma    90.0

_space_group_name_H-M_alt    "P 1"
_space_group_IT_number       1

loop_
  _space_group_symop_operation_xyz
  'x, y, z'

loop_
  _atom_site_type_symbol
  _atom_site_label
  _atom_site_symmetry_multiplicity
  _atom_site_fract_x
  _atom_site_fract_y
  _atom_site_fract_z
  _atom_site_occupancy
  H   H1        1.0  0.5810672744891537  0.6475251577187077  0.24197936987817625  1.0000
  H   H2        1.0  0.9189327259737143  0.35247484211573693  0.7419793710335478  1.0000
  H   H3        1.0  0.4189327260791539  0.14752515780148534  0.7580206298166009  1.0000
  H   H4        1.0  0.0810672738154067  0.8524748420329592  0.25802062866122927  1.0000
  H   H5        1.0  0.4189327260791539  0.35247484211573693  0.7580206298166009  1.0000
  H   H6        1.0  0.0810672738154067  0.6475251577187077  0.25802062866122927  1.0000
  H   H7        1.0  0.5810672744891537  0.8524748420329592  0.24197936987817625  1.0000
  H   H8        1.0  0.9189327259737143  0.14752515780148534  0.7419793710335478  1.0000
  H   H9        1.0  0.6918346947076032  0.5940816608869272  0.36942393036838234  1.0000
  H   H10       1.0  0.8081653049760785  0.4059183389475174  0.869423931523754  1.0000
  H   H11       1.0  0.30816530508151796  0.09408166096970487  0.6305760693263949  1.0000
  H   H12       1.0  0.19183469481304258  0.9059183388647397  0.13057606817102316  1.0000
  H   H13       1.0  0.30816530508151796  0.4059183389475174  0.6305760693263949  1.0000
  H   H14       1.0  0.19183469481304258  0.5940816608869272  0.13057606817102316  1.0000
  H   H15       1.0  0.6918346947076032  0.9059183388647397  0.36942393036838234  1.0000
  H   H16       1.0  0.8081653049760785  0.09408166096970487  0.869423931523754  1.0000
  H   H17       1.0  0.3151205812237826  0.5925487816578681  0.6782972327890398  1.0000
  H   H18       1.0  0.18487941867077787  0.40745121844782006  0.17829723424963423  1.0000
  H   H19       1.0  0.6848794185653384  0.09254878174064576  0.3217027669057374  1.0000
  H   H20       1.0  0.8151205811183433  0.9074512183650423  0.821702768061109  1.0000
  H   H21       1.0  0.6848794185653384  0.40745121844782006  0.3217027669057374  1.0000
  H   H22       1.0  0.8151205811183433  0.5925487816578681  0.821702768061109  1.0000
  H   H23       1.0  0.3151205812237826  0.9074512183650423  0.6782972327890398  1.0000
  H   H24       1.0  0.18487941867077787  0.09254878174064576  0.17829723424963423  1.0000
  H   H25       1.0  0.42558469451246195  0.5386820344885231  0.8087921903135692  1.0000
  H   H26       1.0  0.07441530538209858  0.461317965617165  0.3087921917741637  1.0000
  H   H27       1.0  0.5744153052766592  0.03868203457130088  0.19120780938120793  1.0000
  H   H28       1.0  0.9255846944070225  0.9613179655343873  0.6912078105365796  1.0000
  H   H29       1.0  0.5744153052766592  0.461317965617165  0.19120780938120793  1.0000
  H   H30       1.0  0.9255846944070225  0.5386820344885231  0.6912078105365796  1.0000
  H   H31       1.0  0.42558469451246195  0.9613179655343873  0.8087921903135692  1.0000
  H   H32       1.0  0.07441530538209858  0.03868203457130088  0.3087921917741637  1.0000
  H   H33       1.0  0.24469457454283788  0.681452702668875  0.4658278393635761  1.0000
  H   H34       1.0  0.2553054253517227  0.31854729716556957  0.9658278379029815  1.0000
  H   H35       1.0  0.7553054252462832  0.18145270275165273  0.5341721603312011  1.0000
  H   H36       1.0  0.7446945744373985  0.8185472973540353  0.034172161791795594  1.0000
  H   H37       1.0  0.7553054252462832  0.31854729716556957  0.5341721603312011  1.0000
  H   H38       1.0  0.7446945744373985  0.681452702668875  0.034172161791795594  1.0000
  H   H39       1.0  0.24469457454283788  0.8185472973540353  0.4658278393635761  1.0000
  H   H40       1.0  0.2553054253517227  0.18145270275165273  0.9658278379029815  1.0000
  H   H41       1.0  0.06457519628446971  0.6916777261011333  0.7416204604775609  1.0000
  H   H42       1.0  0.4354248036100908  0.3083222737333113  0.24162046193815545  1.0000
  H   H43       1.0  0.9354248035046514  0.19167772618391102  0.2583795392172162  1.0000
  H   H44       1.0  0.5645751961790302  0.8083222739217771  0.7583795403725879  1.0000
  H   H45       1.0  0.9354248035046514  0.3083222737333113  0.2583795392172162  1.0000
  H   H46       1.0  0.5645751961790302  0.6916777261011333  0.7583795403725879  1.0000
  H   H47       1.0  0.06457519628446971  0.8083222739217771  0.7416204604775609  1.0000
  H   H48       1.0  0.4354248036100908  0.19167772618391102  0.24162046193815545  1.0000
  H   H49       1.0  0.9733169836440204  0.7499999998758334  0.9010016434856373  1.0000
  H   H50       1.0  0.5266830168188478  0.24999999995861116  0.4010016423302656  1.0000
  H   H51       1.0  0.026683016145100717  0.24999999995861116  0.09899835882510602  1.0000
  H   H52       1.0  0.4733169837494598  0.7499999998758334  0.5989983573645115  1.0000
  H   H53       1.0  0.3548792466061253  0.7256465592023301  0.17990172139286506  1.0000
  H   H54       1.0  0.14512075328843527  0.274353440903358  0.6799017225482368  1.0000
  H   H55       1.0  0.6451207531829958  0.22564655901386427  0.8200982783019122  1.0000
  H   H56       1.0  0.8548792472798724  0.7743534408205802  0.3200982797625066  1.0000
  H   H57       1.0  0.6451207531829958  0.274353440903358  0.8200982783019122  1.0000
  H   H58       1.0  0.8548792472798724  0.7256465592023301  0.3200982797625066  1.0000
  H   H59       1.0  0.3548792466061253  0.7743534408205802  0.17990172139286506  1.0000
  H   H60       1.0  0.14512075328843527  0.22564655901386427  0.6799017225482368  1.0000
  C   C1        1.0  0.4412112134602681  0.6235638863978523  0.4537408253117864  1.0000
  C   C2        1.0  0.058788787213479  0.3764361137078358  0.953740823851192  1.0000
  C   C3        1.0  0.5587887871080395  0.12356388648063002  0.5462591769989569  1.0000
  C   C4        1.0  0.9412112133548286  0.8764361136250581  0.04625917584358524  1.0000
  C   C5        1.0  0.5587887871080395  0.3764361137078358  0.5462591769989569  1.0000
  C   C6        1.0  0.9412112133548286  0.6235638863978523  0.04625917584358524  1.0000
  C   C7        1.0  0.4412112134602681  0.8764361136250581  0.4537408253117864  1.0000
  C   C8        1.0  0.058788787213479  0.12356388648063002  0.953740823851192  1.0000
  C   C9        1.0  0.5473362761462365  0.6237075160973462  0.36670026489041624  1.0000
  C   C10       1.0  0.9526637235374451  0.3762924840083419  0.866700266045788  1.0000
  C   C11       1.0  0.4526637236428846  0.12370751590888034  0.6332997348043609  1.0000
  C   C12       1.0  0.04733627625167595  0.8762924839255642  0.13329973364898925  1.0000
  C   C13       1.0  0.4526637236428846  0.3762924840083419  0.6332997348043609  1.0000
  C   C14       1.0  0.04733627625167595  0.6237075160973462  0.13329973364898925  1.0000
  C   C15       1.0  0.5473362761462365  0.8762924839255642  0.36670026489041624  1.0000
  C   C16       1.0  0.9526637235374451  0.12370751590888034  0.866700266045788  1.0000
  C   C17       1.0  0.378752012751798  0.6566956212104139  0.38234791755841485  1.0000
  C   C18       1.0  0.12124798714276257  0.3433043786240306  0.8823479160978204  1.0000
  C   C19       1.0  0.6212479870373231  0.15669562129319164  0.6176520847523285  1.0000
  C   C20       1.0  0.8787520126463585  0.8433043788124964  0.1176520835969568  1.0000
  C   C21       1.0  0.6212479870373231  0.3433043786240306  0.6176520847523285  1.0000
  C   C22       1.0  0.8787520126463585  0.6566956212104139  0.1176520835969568  1.0000
  C   C23       1.0  0.378752012751798  0.8433043788124964  0.38234791755841485  1.0000
  C   C24       1.0  0.12124798714276257  0.15669562129319164  0.8823479160978204  1.0000
  C   C25       1.0  0.6096117937585238  0.5937719183811407  0.4381409454176467  1.0000
  C   C26       1.0  0.8903882067043443  0.40622808172454733  0.9381409439570522  1.0000
  C   C27       1.0  0.3903882068097838  0.09377191819267493  0.5618590542771305  1.0000
  C   C28       1.0  0.10961179308477675  0.9062280816417696  0.06185905573772498  1.0000
  C   C29       1.0  0.3903882068097838  0.40622808172454733  0.5618590542771305  1.0000
  C   C30       1.0  0.10961179308477675  0.5937719183811407  0.06185905573772498  1.0000
  C   C31       1.0  0.6096117937585238  0.9062280816417696  0.4381409454176467  1.0000
  C   C32       1.0  0.8903882067043443  0.09377191819267493  0.9381409439570522  1.0000
  C   C33       1.0  0.39761031693930543  0.5927466814960434  0.6110958876002301  1.0000
  C   C34       1.0  0.10238968295525518  0.40725331833840117  0.11109588906082475  1.0000
  C   C35       1.0  0.6023896828498156  0.0927466815788211  0.3889041120945469  1.0000
  C   C36       1.0  0.8976103168338659  0.907253318526867  0.8889041106339525  1.0000
  C   C37       1.0  0.6023896828498156  0.40725331833840117  0.3889041120945469  1.0000
  C   C38       1.0  0.8976103168338659  0.5927466814960434  0.8889041106339525  1.0000
  C   C39       1.0  0.39761031693930543  0.907253318526867  0.6110958876002301  1.0000
  C   C40       1.0  0.10238968295525518  0.0927466815788211  0.11109588906082475  1.0000
  C   C41       1.0  0.45898354199845953  0.5625230296372422  0.6839731023958662  1.0000
  C   C42       1.0  0.04101645789610103  0.4374769701972023  0.1839731012404945  1.0000
  C   C43       1.0  0.5410164577906615  0.06252302972002002  0.316026897298911  1.0000
  C   C44       1.0  0.95898354189302  0.9374769703856681  0.8160268984542827  1.0000
  C   C45       1.0  0.5410164577906615  0.4374769701972023  0.316026897298911  1.0000
  C   C46       1.0  0.95898354189302  0.5625230296372422  0.8160268984542827  1.0000
  C   C47       1.0  0.45898354199845953  0.9374769703856681  0.6839731023958662  1.0000
  C   C48       1.0  0.04101645789610103  0.06252302972002002  0.1839731012404945  1.0000
  C   C49       1.0  0.5646522094177688  0.5635701751352947  0.5986512421999017  1.0000
  C   C50       1.0  0.9353477902659127  0.43642982469914976  0.09865124366049621  1.0000
  C   C51       1.0  0.43534779037135224  0.06357017521807248  0.4013487574948754  1.0000
  C   C52       1.0  0.06465220952320828  0.936429824616372  0.901348756034281  1.0000
  C   C53       1.0  0.43534779037135224  0.43642982469914976  0.4013487574948754  1.0000
  C   C54       1.0  0.06465220952320828  0.5635701751352947  0.901348756034281  1.0000
  C   C55       1.0  0.5646522094177688  0.936429824616372  0.5986512421999017  1.0000
  C   C56       1.0  0.9353477902659127  0.06357017521807248  0.09865124366049621  1.0000
  C   C57       1.0  0.2292703783915029  0.7499999998758334  0.39899161503439723  1.0000
  C   C58       1.0  0.27072962150305757  0.24999999995861116  0.8989916161897689  1.0000
  C   C59       1.0  0.7707296213976181  0.24999999995861116  0.60100838466038  1.0000
  C   C60       1.0  0.7292703782860636  0.7499999998758334  0.1010083835050083  1.0000
  C   C61       1.0  0.09683561873792612  0.7179601850057302  0.6695656426567717  1.0000
  C   C62       1.0  0.403164381935821  0.28203981509995796  0.1695656415014  1.0000
  C   C63       1.0  0.9031643818303815  0.2179601848172643  0.33043435965397167  1.0000
  C   C64       1.0  0.5968356186324867  0.7820398150171802  0.8304343581933771  1.0000
  C   C65       1.0  0.9031643818303815  0.28203981509995796  0.33043435965397167  1.0000
  C   C66       1.0  0.5968356186324867  0.7179601850057302  0.8304343581933771  1.0000
  C   C67       1.0  0.09683561873792612  0.7820398150171802  0.6695656426567717  1.0000
  C   C68       1.0  0.403164381935821  0.2179601848172643  0.1695656415014  1.0000
  C   C69       1.0  0.04649604123093002  0.7499999998758334  0.7596411397525098  1.0000
  C   C70       1.0  0.4535039586636305  0.24999999995861116  0.2596411412131042  1.0000
  C   C71       1.0  0.953503958558191  0.24999999995861116  0.2403588599422674  1.0000
  C   C72       1.0  0.5464960411254906  0.7499999998758334  0.740358861097639  1.0000
  N   N1        1.0  0.31595292308492984  0.7499999998758334  0.20586081155118152  1.0000
  N   N2        1.0  0.18404707680963073  0.24999999995861116  0.7058608127065532  1.0000
  N   N3        1.0  0.6840470767041913  0.24999999995861116  0.7941391881435956  1.0000
  N   N4        1.0  0.8159529229794903  0.7499999998758334  0.294139186988224  1.0000
  N   N5        1.0  0.1866536334234727  0.7175783296891548  0.4927839160776908  1.0000
  N   N6        1.0  0.3133463664710879  0.2824216704165333  0.9927839172330625  1.0000
  N   N7        1.0  0.8133463663656485  0.21757832950068895  0.5072160836170864  1.0000
  N   N8        1.0  0.6866536340972198  0.7824216703337556  0.007216082461714688  1.0000
  N   N9        1.0  0.8133463663656485  0.2824216704165333  0.5072160836170864  1.0000
  N   N10       1.0  0.6866536340972198  0.7175783296891548  0.007216082461714688  1.0000
  N   N11       1.0  0.1866536334234727  0.7824216703337556  0.4927839160776908  1.0000
  N   N12       1.0  0.3133463664710879  0.21757832950068895  0.9927839172330625  1.0000
  O   O1        1.0  0.28087375204450904  0.6553942385883933  0.48926938124893604  1.0000
  O   O2        1.0  0.21912624785005153  0.34460576151729483  0.9892693824043077  1.0000
  O   O3        1.0  0.7191262477446121  0.155394238671171  0.5107306184458411  1.0000
  O   O4        1.0  0.7808737519390695  0.8446057614345172  0.010730617290469436  1.0000
  O   O5        1.0  0.7191262477446121  0.34460576151729483  0.5107306184458411  1.0000
  O   O6        1.0  0.7808737519390695  0.6553942385883933  0.010730617290469436  1.0000
  O   O7        1.0  0.28087375204450904  0.8446057614345172  0.48926938124893604  1.0000
  O   O8        1.0  0.21912624785005153  0.155394238671171  0.9892693824043077  1.0000
  O   O9        1.0  0.41854560439138194  0.6834684911698317  0.23560005912531073  1.0000
  O   O10       1.0  0.08145439550317862  0.31653150893585646  0.7356000602806824  1.0000
  O   O11       1.0  0.5814543953977391  0.1834684909813658  0.7643999405694664  1.0000
  O   O12       1.0  0.9185456042859425  0.8165315088530788  0.2643999394140948  1.0000
  O   O13       1.0  0.5814543953977391  0.31653150893585646  0.7643999405694664  1.0000
  O   O14       1.0  0.9185456042859425  0.6834684911698317  0.2643999394140948  1.0000
  O   O15       1.0  0.41854560439138194  0.8165315088530788  0.23560005912531073  1.0000
  O   O16       1.0  0.08145439550317862  0.1834684909813658  0.7356000602806824  1.0000
  Br  Br1       1.0  0.6508799070881816  0.5232975914295699  0.7143255402838075  1.0000
  Br  Br2       1.0  0.8491200925955001  0.4767024086761181  0.21432554174440194  1.0000
  Br  Br3       1.0  0.34912009270093963  0.023297591241104153  0.28567445941096975  1.0000
  Br  Br4       1.0  0.15087990719362096  0.9767024085933405  0.7856744579503753  1.0000
  Br  Br5       1.0  0.34912009270093963  0.4767024086761181  0.28567445941096975  1.0000
  Br  Br6       1.0  0.15087990719362096  0.5232975914295699  0.7856744579503753  1.0000
  Br  Br7       1.0  0.6508799070881816  0.9767024085933405  0.7143255402838075  1.0000
  Br  Br8       1.0  0.8491200925955001  0.023297591241104153  0.21432554174440194  1.0000
