data_image0
_chemical_formula_structural       H60C72N12O16I8
_chemical_formula_sum              "H60 C72 N12 O16 I8"
_cell_length_a       12.70646407376862
_cell_length_b       37.675020418771496
_cell_length_c       3.945745307162054
_cell_angle_alpha    90.0
_cell_angle_beta     90.0
_cell_angle_gamma    90.0

_space_group_name_H-M_alt    "P 1"
_space_group_IT_number       1

loop_
  _space_group_symop_operation_xyz
  'x, y, z'

loop_
  _atom_site_type_symbol
  _atom_site_label
  _atom_site_symmetry_multiplicity
  _atom_site_fract_x
  _atom_site_fract_y
  _atom_site_fract_z
  _atom_site_occupancy
  H   H1        1.0  0.5657715166283724  0.6487107656037985  0.22704718887300598  1.0000
  H   H2        1.0  0.9342284833202418  0.3512892344288094  0.7270471879654393  1.0000
  H   H3        1.0  0.43422848307503675  0.14871076558749458  0.772952811846236  1.0000
  H   H4        1.0  0.06577151638316733  0.8512892344451134  0.27295281275380273  1.0000
  H   H5        1.0  0.43422848307503675  0.3512892344288094  0.772952811846236  1.0000
  H   H6        1.0  0.06577151638316733  0.6487107656037985  0.27295281275380273  1.0000
  H   H7        1.0  0.5657715166283724  0.8512892344451134  0.22704718887300598  1.0000
  H   H8        1.0  0.9342284833202418  0.14871076558749458  0.7270471879654393  1.0000
  H   H9        1.0  0.6778217197166755  0.5967382132803923  0.35278317317474794  1.0000
  H   H10       1.0  0.8221782802319388  0.4032617864867878  0.8527831748015566  1.0000
  H   H11       1.0  0.32217827998673376  0.09673821352951621  0.6472168250101187  1.0000
  H   H12       1.0  0.17782171947147035  0.9032617865030916  0.14721682591768534  1.0000
  H   H13       1.0  0.32217827998673376  0.4032617864867878  0.6472168250101187  1.0000
  H   H14       1.0  0.17782171947147035  0.5967382132803923  0.14721682591768534  1.0000
  H   H15       1.0  0.6778217197166755  0.9032617865030916  0.35278317317474794  1.0000
  H   H16       1.0  0.8221782802319388  0.09673821352951621  0.8527831748015566  1.0000
  H   H17       1.0  0.4102852296070586  0.5438626225612047  0.8078965675290295  1.0000
  H   H18       1.0  0.08971476985114546  0.4561373774714032  0.3078965659022208  1.0000
  H   H19       1.0  0.5897147700963505  0.04386262254490068  0.19210343319021245  1.0000
  H   H20       1.0  0.9102852298522637  0.9561373774877073  0.6921034348170211  1.0000
  H   H21       1.0  0.5897147700963505  0.4561373774714032  0.19210343319021245  1.0000
  H   H22       1.0  0.9102852298522637  0.5438626225612047  0.6921034348170211  1.0000
  H   H23       1.0  0.4102852296070586  0.9561373774877073  0.8078965675290295  1.0000
  H   H24       1.0  0.08971476985114546  0.04386262254490068  0.3078965659022208  1.0000
  H   H25       1.0  0.29922150315987533  0.5963430137600071  0.6787335297944532  1.0000
  H   H26       1.0  0.20077849629832872  0.40365698627260077  0.1787335307020199  1.0000
  H   H27       1.0  0.7007784965435339  0.09634301374370317  0.3212664709247888  1.0000
  H   H28       1.0  0.7992215034050805  0.9036569862889048  0.8212664700172221  1.0000
  H   H29       1.0  0.7007784965435339  0.40365698627260077  0.3212664709247888  1.0000
  H   H30       1.0  0.7992215034050805  0.5963430137600071  0.8212664700172221  1.0000
  H   H31       1.0  0.29922150315987533  0.9036569862889048  0.6787335297944532  1.0000
  H   H32       1.0  0.20077849629832872  0.09634301374370317  0.1787335307020199  1.0000
  H   H33       1.0  0.22783942355580594  0.6826454498000941  0.4620801313988911  1.0000
  H   H34       1.0  0.27216057668939914  0.31735455023251374  0.9620801304913243  1.0000
  H   H35       1.0  0.7721605761476031  0.18264544978379021  0.5379198693203509  1.0000
  H   H36       1.0  0.727839423801011  0.8173545499833899  0.03791987022791761  1.0000
  H   H37       1.0  0.7721605761476031  0.31735455023251374  0.5379198693203509  1.0000
  H   H38       1.0  0.727839423801011  0.6826454498000941  0.03791987022791761  1.0000
  H   H39       1.0  0.22783942355580594  0.8173545499833899  0.4620801313988911  1.0000
  H   H40       1.0  0.27216057668939914  0.18264544978379021  0.9620801304913243  1.0000
  H   H41       1.0  0.047982064598021075  0.6928269572216237  0.7490885067099966  1.0000
  H   H42       1.0  0.45201793486018305  0.3071730428109842  0.24908850508318786  1.0000
  H   H43       1.0  0.9520179351053881  0.19282695720531978  0.2509114940092454  1.0000
  H   H44       1.0  0.5479820648432261  0.8071730428272881  0.7509114931016787  1.0000
  H   H45       1.0  0.9520179351053881  0.3071730428109842  0.2509114940092454  1.0000
  H   H46       1.0  0.5479820648432261  0.6928269572216237  0.7509114931016787  1.0000
  H   H47       1.0  0.047982064598021075  0.8071730428272881  0.7490885067099966  1.0000
  H   H48       1.0  0.45201793486018305  0.19282695720531978  0.24908850508318786  1.0000
  H   H49       1.0  0.9574398746473434  0.749999999891742  0.9158006279424539  1.0000
  H   H50       1.0  0.5425601260882719  0.24999999987543806  0.4158006288500206  1.0000
  H   H51       1.0  0.042560125843066815  0.24999999987543806  0.08419937277678809  1.0000
  H   H52       1.0  0.45743987440213824  0.749999999891742  0.5841993718692214  1.0000
  H   H53       1.0  0.335582426019115  0.7261928234116702  0.1755879830212126  1.0000
  H   H54       1.0  0.16441757422609016  0.2738071766209377  0.6755879821136459  1.0000
  H   H55       1.0  0.6644175736842942  0.22619282339536628  0.8244120176980294  1.0000
  H   H56       1.0  0.83558242626432  0.7738071766372416  0.32441201607122067  1.0000
  H   H57       1.0  0.6644175736842942  0.2738071766209377  0.8244120176980294  1.0000
  H   H58       1.0  0.83558242626432  0.7261928234116702  0.32441201607122067  1.0000
  H   H59       1.0  0.335582426019115  0.7738071766372416  0.1755879830212126  1.0000
  H   H60       1.0  0.16441757422609016  0.22619282339536628  0.6755879821136459  1.0000
  C   C1        1.0  0.42561895336127165  0.6260670839145128  0.44597401581037427  1.0000
  C   C2        1.0  0.07438104688393346  0.37393291611809504  0.9459740149028075  1.0000
  C   C3        1.0  0.5743810463421375  0.12606708389820892  0.5540259849088678  1.0000
  C   C4        1.0  0.9256189536064766  0.8739329161343989  0.05402598328205903  1.0000
  C   C5        1.0  0.5743810463421375  0.37393291611809504  0.5540259849088678  1.0000
  C   C6        1.0  0.9256189536064766  0.6260670839145128  0.05402598328205903  1.0000
  C   C7        1.0  0.42561895336127165  0.8739329161343989  0.44597401581037427  1.0000
  C   C8        1.0  0.07438104688393346  0.12606708389820892  0.9459740149028075  1.0000
  C   C9        1.0  0.5505742785235055  0.5673571706772017  0.5906932147316815  1.0000
  C   C10       1.0  0.9494257214251088  0.4326428293554062  0.09069321563924825  1.0000
  C   C11       1.0  0.4494257219669047  0.06735717066089777  0.409306783453185  1.0000
  C   C12       1.0  0.05057427827830034  0.9326428293717101  0.9093067850799937  1.0000
  C   C13       1.0  0.4494257219669047  0.4326428293554062  0.409306783453185  1.0000
  C   C14       1.0  0.05057427827830034  0.5673571706772017  0.9093067850799937  1.0000
  C   C15       1.0  0.5505742785235055  0.9326428293717101  0.5906932147316815  1.0000
  C   C16       1.0  0.9494257214251088  0.06735717066089777  0.09069321563924825  1.0000
  C   C17       1.0  0.5321611355246595  0.6257473747314489  0.3543853571749481  1.0000
  C   C18       1.0  0.9678388644239547  0.37425262503573103  0.8543853562673813  1.0000
  C   C19       1.0  0.46783886417874965  0.12574737471514505  0.6456146435442939  1.0000
  C   C20       1.0  0.03216113606645542  0.874252625052035  0.14561464191748516  1.0000
  C   C21       1.0  0.46783886417874965  0.37425262503573103  0.6456146435442939  1.0000
  C   C22       1.0  0.03216113606645542  0.6257473747314489  0.14561464191748516  1.0000
  C   C23       1.0  0.5321611355246595  0.874252625052035  0.3543853571749481  1.0000
  C   C24       1.0  0.9678388644239547  0.12574737471514505  0.8543853562673813  1.0000
  C   C25       1.0  0.5952174110823933  0.596525726866025  0.4255352967035893  1.0000
  C   C26       1.0  0.9047825888662209  0.40347427290115506  0.925535298330398  1.0000
  C   C27       1.0  0.40478258862101574  0.09652572711514888  0.5744647014812773  1.0000
  C   C28       1.0  0.0952174108371883  0.9034742729174591  0.07446470238884395  1.0000
  C   C29       1.0  0.40478258862101574  0.40347427290115506  0.5744647014812773  1.0000
  C   C30       1.0  0.0952174108371883  0.596525726866025  0.07446470238884395  1.0000
  C   C31       1.0  0.5952174110823933  0.9034742729174591  0.4255352967035893  1.0000
  C   C32       1.0  0.9047825888662209  0.09652572711514888  0.925535298330398  1.0000
  C   C33       1.0  0.444113521058129  0.5668049217396103  0.6797961832790532  1.0000
  C   C34       1.0  0.05588647840007508  0.4331950780275697  0.17979618418661994  1.0000
  C   C35       1.0  0.5558864786452802  0.06680492172330639  0.3202038174401888  1.0000
  C   C36       1.0  0.9441135213033341  0.9331950780438736  0.820203816532622  1.0000
  C   C37       1.0  0.5558864786452802  0.4331950780275697  0.3202038174401888  1.0000
  C   C38       1.0  0.9441135213033341  0.5668049217396103  0.820203816532622  1.0000
  C   C39       1.0  0.444113521058129  0.9331950780438736  0.6797961832790532  1.0000
  C   C40       1.0  0.05588647840007508  0.06680492172330639  0.17979618418661994  1.0000
  C   C41       1.0  0.38203120331652335  0.596311085442872  0.6072060240814726  1.0000
  C   C42       1.0  0.1179687969286817  0.4036889145897358  0.10720602245466393  1.0000
  C   C43       1.0  0.6179687971738868  0.09631108542656812  0.3927939766377694  1.0000
  C   C44       1.0  0.8820312035617285  0.9036889146060397  0.8927939757302026  1.0000
  C   C45       1.0  0.6179687971738868  0.4036889145897358  0.3927939766377694  1.0000
  C   C46       1.0  0.8820312035617285  0.596311085442872  0.8927939757302026  1.0000
  C   C47       1.0  0.38203120331652335  0.9036889146060397  0.6072060240814726  1.0000
  C   C48       1.0  0.1179687969286817  0.09631108542656812  0.10720602245466393  1.0000
  C   C49       1.0  0.3628083913224108  0.6585145946633302  0.3756410347392769  1.0000
  C   C50       1.0  0.13719160892279428  0.34148540536927774  0.8756410363660856  1.0000
  C   C51       1.0  0.6371916083809983  0.15851459464702622  0.6243589659799651  1.0000
  C   C52       1.0  0.8628083915676159  0.8414854051201538  0.12435896435315638  1.0000
  C   C53       1.0  0.6371916083809983  0.34148540536927774  0.6243589659799651  1.0000
  C   C54       1.0  0.8628083915676159  0.6585145946633302  0.12435896435315638  1.0000
  C   C55       1.0  0.3628083913224108  0.8414854051201538  0.3756410347392769  1.0000
  C   C56       1.0  0.13719160892279428  0.15851459464702622  0.8756410363660856  1.0000
  C   C57       1.0  0.21030648451732759  0.749999999891742  0.39918247565067955  1.0000
  C   C58       1.0  0.2896935157278775  0.24999999987543806  0.8991824747431129  1.0000
  C   C59       1.0  0.7896935159730825  0.24999999987543806  0.6008175250685623  1.0000
  C   C60       1.0  0.7103064839755316  0.749999999891742  0.10081752597612913  1.0000
  C   C61       1.0  0.07934225951035873  0.7186270231325554  0.6748526609577836  1.0000
  C   C62       1.0  0.42065773994784533  0.2813729766346247  0.17485266186535045  1.0000
  C   C63       1.0  0.9206577401930505  0.21862702311625143  0.32514733722708283  1.0000
  C   C64       1.0  0.5793422597555639  0.7813729766509286  0.8251473388538916  1.0000
  C   C65       1.0  0.9206577401930505  0.2813729766346247  0.32514733722708283  1.0000
  C   C66       1.0  0.5793422597555639  0.7186270231325554  0.8251473388538916  1.0000
  C   C67       1.0  0.07934225951035873  0.7813729766509286  0.6748526609577836  1.0000
  C   C68       1.0  0.42065773994784533  0.21862702311625143  0.17485266186535045  1.0000
  C   C69       1.0  0.029510392334410194  0.749999999891742  0.7688174613028589  1.0000
  C   C70       1.0  0.4704896079107949  0.24999999987543806  0.2688174622104257  1.0000
  C   C71       1.0  0.9704896081559999  0.24999999987543806  0.2311825368820076  1.0000
  C   C72       1.0  0.5295103917926143  0.749999999891742  0.7311825385088163  1.0000
  N   N1        1.0  0.1681989330463768  0.7182615013664905  0.4933208198884022  1.0000
  N   N2        1.0  0.3318010664118273  0.2817384986661174  0.9933208215152108  1.0000
  N   N3        1.0  0.8318010666570325  0.21826150135018654  0.5066791808308398  1.0000
  N   N4        1.0  0.6681989332915819  0.7817384986824214  0.006679179204031075  1.0000
  N   N5        1.0  0.8318010666570325  0.2817384986661174  0.5066791808308398  1.0000
  N   N6        1.0  0.6681989332915819  0.7182615013664905  0.006679179204031075  1.0000
  N   N7        1.0  0.1681989330463768  0.7817384986824214  0.4933208198884022  1.0000
  N   N8        1.0  0.3318010664118273  0.21826150135018654  0.9933208215152108  1.0000
  N   N9        1.0  0.2964335229795251  0.749999999891742  0.2045321978930392  1.0000
  N   N10       1.0  0.20356647726568003  0.24999999987543806  0.7045321969854724  1.0000
  N   N11       1.0  0.7035664775108852  0.24999999987543806  0.7954678028262029  1.0000
  N   N12       1.0  0.7964335224377291  0.749999999891742  0.2954678011993941  1.0000
  O   O1        1.0  0.26433250749386733  0.657312964524931  0.4839964116623522  1.0000
  O   O2        1.0  0.23566749275133775  0.3426870355076769  0.9839964132891609  1.0000
  O   O3        1.0  0.7356674929965428  0.15731296450862706  0.5160035890568897  1.0000
  O   O4        1.0  0.7643325069520713  0.8426870355239808  0.01600358743008106  1.0000
  O   O5        1.0  0.7356674929965428  0.3426870355076769  0.5160035890568897  1.0000
  O   O6        1.0  0.7643325069520713  0.657312964524931  0.01600358743008106  1.0000
  O   O7        1.0  0.26433250749386733  0.8426870355239808  0.4839964116623522  1.0000
  O   O8        1.0  0.23566749275133775  0.15731296450862706  0.9839964132891609  1.0000
  O   O9        1.0  0.4022220745542294  0.68461091310116  0.2298035705330839  1.0000
  O   O10       1.0  0.09777792490397465  0.31538908693144796  0.7298035721598926  1.0000
  O   O11       1.0  0.5977779251491797  0.184610913084856  0.7701964276517826  1.0000
  O   O12       1.0  0.9022220747994345  0.8153890869477519  0.27019642855934933  1.0000
  O   O13       1.0  0.5977779251491797  0.31538908693144796  0.7701964276517826  1.0000
  O   O14       1.0  0.9022220747994345  0.68461091310116  0.27019642855934933  1.0000
  O   O15       1.0  0.4022220745542294  0.8153890869477519  0.2298035705330839  1.0000
  O   O16       1.0  0.09777792490397465  0.184610913084856  0.7298035721598926  1.0000
  I   I1        1.0  0.6471769559382254  0.5243187167632629  0.7275743786070208  1.0000
  I   I2        1.0  0.8528230440103887  0.47568128326934495  0.22757437698021207  1.0000
  I   I3        1.0  0.3528230437651837  0.02431871674695898  0.2724256221122212  1.0000
  I   I4        1.0  0.14717695569302042  0.975681283285649  0.7724256212046544  1.0000
  I   I5        1.0  0.3528230437651837  0.47568128326934495  0.2724256221122212  1.0000
  I   I6        1.0  0.14717695569302042  0.5243187167632629  0.7724256212046544  1.0000
  I   I7        1.0  0.6471769559382254  0.975681283285649  0.7275743786070208  1.0000
  I   I8        1.0  0.8528230440103887  0.02431871674695898  0.22757437698021207  1.0000
