data_image0
_chemical_formula_structural       H32C38N10O8S4Cl2
_chemical_formula_sum              "H32 C38 N10 O8 S4 Cl2"
_cell_length_a       6.581234708970369
_cell_length_b       8.97662565539694
_cell_length_c       16.541879214051704
_cell_angle_alpha    87.91421300070694
_cell_angle_beta     82.19168709290491
_cell_angle_gamma    82.7176167318871

_space_group_name_H-M_alt    "P 1"
_space_group_IT_number       1

loop_
  _space_group_symop_operation_xyz
  'x, y, z'

loop_
  _atom_site_type_symbol
  _atom_site_label
  _atom_site_symmetry_multiplicity
  _atom_site_fract_x
  _atom_site_fract_y
  _atom_site_fract_z
  _atom_site_occupancy
  H   H1        1.0  0.7494903859679461  0.35852940762810065  0.5091514273665677  1.0000
  H   H2        1.0  0.25050961329478927  0.6414705931021171  0.49084857290599226  1.0000
  H   H3        1.0  0.715141985307047  0.1338672968972332  0.5741992356503995  1.0000
  H   H4        1.0  0.2848580139556886  0.8661327038329845  0.4258007646221604  1.0000
  H   H5        1.0  0.8722884649987762  0.07821188858191473  0.21129464012418261  1.0000
  H   H6        1.0  0.12771153426395912  0.9217881121483029  0.7887053601483774  1.0000
  H   H7        1.0  0.7661667880978494  0.525111945978706  0.38816062872478957  1.0000
  H   H8        1.0  0.23383321135180357  0.4748880536285284  0.6118393715460673  1.0000
  H   H9        1.0  0.6253259087888573  0.3594806635224133  0.039149349013524286  1.0000
  H   H10       1.0  0.37467409066079577  0.6405193360848213  0.9608506512573326  1.0000
  H   H11       1.0  0.713362748638479  0.5280004211497112  0.058992798914429545  1.0000
  H   H12       1.0  0.2866372506242564  0.4719995795805063  0.9410072013581304  1.0000
  H   H13       1.0  0.7652922823207593  0.6720959540166692  0.5023389754061445  1.0000
  H   H14       1.0  0.23470771734075238  0.32790404561558595  0.49766102425442277  1.0000
  H   H15       1.0  0.6995171272466334  0.8614717260818884  0.6086822831582079  1.0000
  H   H16       1.0  0.30048287220301967  0.13852827352534605  0.39131771711264884  1.0000
  H   H17       1.0  0.6447421234813596  0.5004573108407466  0.7879239747213157  1.0000
  H   H18       1.0  0.3552578757813758  0.4995426898894711  0.2120760255512443  1.0000
  H   H19       1.0  0.712216008133197  0.32314708348554894  0.6723143471774017  1.0000
  H   H20       1.0  0.28778399134139726  0.6768529172696892  0.32768565248486864  1.0000
  H   H21       1.0  0.5642019337455902  0.7573635680106232  0.8355317431887306  1.0000
  H   H22       1.0  0.43579806591592163  0.24263643162163195  0.16446825647183658  1.0000
  H   H23       1.0  0.7315494075415868  0.9899547343821115  0.710605900311931  1.0000
  H   H24       1.0  0.26845059190806625  0.01004526522512325  0.28939409995892584  1.0000
  H   H25       1.0  0.8716479094961603  0.17588605249994982  0.7878985043617021  1.0000
  H   H26       1.0  0.12835208995349268  0.8241139471072848  0.2121014959091547  1.0000
  H   H27       1.0  0.8099982734461856  0.35134193470712577  0.9049946796277797  1.0000
  H   H28       1.0  0.1900017275477979  0.6486580660422017  0.09500532003760774  1.0000
  H   H29       1.0  0.2853488608389855  0.1644449739947943  0.005263905699917255  1.0000
  H   H30       1.0  0.7146511386106675  0.8355550256124401  0.9947360945709396  1.0000
  H   H31       1.0  0.33031058972434396  0.9762955995198159  0.8965622828726242  1.0000
  H   H32       1.0  0.6696894112446982  0.023704400081507773  0.10343771740134974  1.0000
  C   C1        1.0  0.7424496732251911  0.1299172321548424  0.5079456369191683  1.0000
  C   C2        1.0  0.2575503264363208  0.8700827674774126  0.49205436274139897  1.0000
  C   C3        1.0  0.7866742458273205  0.2820737162274409  0.3862571755501939  1.0000
  C   C4        1.0  0.21332575514172172  0.7179262833738829  0.61374282472378  1.0000
  C   C5        1.0  0.8124635198338637  0.15666689290163754  0.3351411648328541  1.0000
  C   C6        1.0  0.1875364811601197  0.8433331078476899  0.6648588348325334  1.0000
  C   C7        1.0  0.8481433963554563  0.1752357798303881  0.25065516620047834  1.0000
  C   C8        1.0  0.15185660330605555  0.824764219801867  0.749344833460089  1.0000
  C   C9        1.0  0.8548439300345979  0.31757189601803093  0.21506323497119278  1.0000
  C   C10       1.0  0.14515607095938554  0.6824281047312964  0.7849367646941946  1.0000
  C   C11       1.0  0.8216019679387215  0.44359457052638895  0.2658457992599937  1.0000
  C   C12       1.0  0.1783980330303207  0.5564054290749347  0.7341542010139802  1.0000
  C   C13       1.0  0.790438444413476  0.4260670272980233  0.3503083989077837  1.0000
  C   C14       1.0  0.209561556767425  0.573932972328321  0.6496916007559006  1.0000
  C   C15       1.0  0.7391432860359767  0.6368841681657624  0.5663943697250272  1.0000
  C   C16       1.0  0.2608567149330656  0.3631158314355613  0.43360563054894663  1.0000
  C   C17       1.0  0.7043287995124923  0.7436131885449322  0.6268355153205355  1.0000
  C   C18       1.0  0.29567120014901954  0.2563868110873229  0.37316448434003174  1.0000
  C   C19       1.0  0.6685202614723632  0.6976362363225612  0.7092914237759385  1.0000
  C   C20       1.0  0.3314797379772898  0.30236376328467335  0.29070857649491844  1.0000
  C   C21       1.0  0.6725827934362131  0.5426092713951779  0.7253424549087604  1.0000
  C   C22       1.0  0.3274172058265224  0.4573907293350398  0.27465754536379966  1.0000
  C   C23       1.0  0.7089654096186131  0.44359511952220354  0.6608940758472616  1.0000
  C   C24       1.0  0.29103458964412227  0.5564048812080141  0.3391059244252984  1.0000
  C   C25       1.0  0.622226009183087  0.8032067738436696  0.7760053108931729  1.0000
  C   C26       1.0  0.3777739900796484  0.19679322688654804  0.22399468937938705  1.0000
  C   C27       1.0  0.6551711443303313  0.9486273839673731  0.7682101430097932  1.0000
  C   C28       1.0  0.3448288566636521  0.051372616781954185  0.2317898566555943  1.0000
  C   C29       1.0  0.6102180028762682  0.05718747359507196  0.833429303225282  1.0000
  C   C30       1.0  0.3897819965983262  0.9428125271601662  0.1665706964369884  1.0000
  C   C31       1.0  0.7414018210377957  0.16871314863979653  0.8355620081148858  1.0000
  C   C32       1.0  0.258598178623716  0.8312868509924587  0.16443799154568148  1.0000
  C   C33       1.0  0.7066540913201439  0.2669348059286093  0.9001262099181775  1.0000
  C   C34       1.0  0.2933459079425915  0.7330651948016085  0.09987379035438261  1.0000
  C   C35       1.0  0.4156506765167682  0.16240968579310092  0.9566864775682982  1.0000
  C   C36       1.0  0.5843493246641328  0.8375903138332433  0.043313522095386116  1.0000
  C   C37       1.0  0.4414465697314237  0.05693232662197933  0.895311539905628  1.0000
  C   C38       1.0  0.5585534297182292  0.9430676729852551  0.10468846036522889  1.0000
  N   N1        1.0  0.7589504753654295  0.9978724394804275  0.4752840023437905  1.0000
  N   N2        1.0  0.24104952560361273  0.002127560120896109  0.5247159979301834  1.0000
  N   N3        1.0  0.7552547716743523  0.26456886232944016  0.47016020719118334  1.0000
  N   N4        1.0  0.24474522758838319  0.7354311384007775  0.5298397930813766  1.0000
  N   N5        1.0  0.7017390828093218  0.41931946105088574  0.0775114935312892  1.0000
  N   N6        1.0  0.2982609168521899  0.5806805385813694  0.922488506129278  1.0000
  N   N7        1.0  0.7406020486775821  0.4884305045842013  0.5820577521438081  1.0000
  N   N8        1.0  0.25939795229146023  0.5115694950171225  0.4179422481301658  1.0000
  N   N9        1.0  0.5469231133874076  0.26463519174609196  0.9603118574846153  1.0000
  N   N10       1.0  0.4530768862741042  0.7353648078861632  0.03968814217595187  1.0000
  O   O1        1.0  0.9291365135608387  0.17611137002091584  0.07850168408251285  1.0000
  O   O2        1.0  0.07086348570189678  0.8238886307093017  0.9214983161900472  1.0000
  O   O3        1.0  0.08267961946371079  0.41482893890995903  0.08758837722273327  1.0000
  O   O4        1.0  0.9173203801978009  0.5851710607222961  0.9124116224378339  1.0000
  O   O5        1.0  0.9944860394079887  0.8837603368284328  0.35622681264308625  1.0000
  O   O6        1.0  0.005513960041664245  0.11623966277880178  0.6437731876277707  1.0000
  O   O7        1.0  0.6192665192217304  0.9159124934179956  0.3536715983155477  1.0000
  O   O8        1.0  0.38073348022792264  0.08408750618923881  0.646328401955309  1.0000
  S   S1        1.0  0.7968114661473819  0.9749353980353551  0.37755666804107324  1.0000
  S   S2        1.0  0.20318853311535365  0.025064602694862714  0.6224433322314867  1.0000
  S   S3        1.0  0.9090282999098009  0.3292719425534332  0.10617204223305036  1.0000
  S   S4        1.0  0.09097169975171081  0.6707280570788218  0.8938279574275169  1.0000
  Cl  Cl1       1.0  0.8096673309828992  0.6235140963004351  0.22570620427684354  1.0000
  Cl  Cl2       1.0  0.19033267019800176  0.37648590332590925  0.7742937953868407  1.0000
