data_image0
_chemical_formula_structural       H26C40N4O6Br2
_chemical_formula_sum              "H26 C40 N4 O6 Br2"
_cell_length_a       8.479552576144723
_cell_length_b       9.975919007567002
_cell_length_c       10.464824218196197
_cell_angle_alpha    80.02752714582333
_cell_angle_beta     74.24714363331964
_cell_angle_gamma    82.23446652711405

_space_group_name_H-M_alt    "P 1"
_space_group_IT_number       1

loop_
  _space_group_symop_operation_xyz
  'x, y, z'

loop_
  _atom_site_type_symbol
  _atom_site_label
  _atom_site_symmetry_multiplicity
  _atom_site_fract_x
  _atom_site_fract_y
  _atom_site_fract_z
  _atom_site_occupancy
  H   H1        1.0  0.9283148545800504  0.005802761912192115  0.1937051136951367  1.0000
  H   H2        1.0  0.0716851456722632  0.9941972382994329  0.8062948861808098  1.0000
  H   H3        1.0  0.5160106676032039  0.13267750365135092  0.018574671294276653  1.0000
  H   H4        1.0  0.4839893323428201  0.8673224964046602  0.9814253295848201  1.0000
  H   H5        1.0  0.6615997846799501  0.3279612188229551  0.8716694177045211  1.0000
  H   H6        1.0  0.33840021526607394  0.6720387812330559  0.12833058317457557  1.0000
  H   H7        1.0  0.6524850740027672  0.9715888017513838  0.1750620653889339  1.0000
  H   H8        1.0  0.34751492521635796  0.02841119746159995  0.8249379344822656  1.0000
  H   H9        1.0  0.051504846708447606  0.6713541593363361  0.6559412631551625  1.0000
  H   H10       1.0  0.9484951533869261  0.3286458397094389  0.34405873771475437  1.0000
  H   H11       1.0  0.571311656981141  0.6589697478660365  0.8659930726720118  1.0000
  H   H12       1.0  0.42868834296488323  0.3410302521899745  0.13400692820708487  1.0000
  H   H13       1.0  0.7985746193686164  0.5479560460968266  0.407352643543852  1.0000
  H   H14       1.0  0.2014253808836972  0.4520439541147983  0.5926473563320945  1.0000
  H   H15       1.0  0.7819917895858916  0.7998775578762825  0.7093006733684437  1.0000
  H   H16       1.0  0.21800821066642215  0.2001224423353425  0.2906993265075027  1.0000
  H   H17       1.0  0.5882637697256403  0.41252890213190874  0.5810266111580706  1.0000
  H   H18       1.0  0.41173623052667313  0.5874710980797163  0.41897338871787587  1.0000
  H   H19       1.0  0.14359013959986722  0.9370999761960016  0.2751985791813198  1.0000
  H   H20       1.0  0.8564098594699083  0.06290002402721842  0.7248014206990593  1.0000
  H   H21       1.0  0.3126008460138137  0.7202390520902745  0.6888806869815878  1.0000
  H   H22       1.0  0.6873991543878495  0.27976094711111454  0.31111931288517886  1.0000
  H   H23       1.0  0.4083689080956807  0.983011258673887  0.3080117535057374  1.0000
  H   H24       1.0  0.591631092156633  0.016988741537737957  0.6919882463702091  1.0000
  H   H25       1.0  0.49603832242390394  0.8729389242316788  0.5137287781201811  1.0000
  H   H26       1.0  0.5039616778284094  0.12706107597994612  0.48627122175576537  1.0000
  C   C1        1.0  0.11520064681340465  0.2286566013315899  0.026258192397643654  1.0000
  C   C2        1.0  0.8847993522563711  0.77134339889163  0.9737418074827354  1.0000
  C   C3        1.0  0.9481052485957836  0.18643018857845417  0.04321058343323584  1.0000
  C   C4        1.0  0.05189475165652972  0.8135698116331707  0.9567894164427105  1.0000
  C   C5        1.0  0.8736959925641338  0.2753795341282974  0.9530681867832986  1.0000
  C   C6        1.0  0.12630400783752965  0.7246204650730913  0.046931813083468124  1.0000
  C   C7        1.0  0.9911668386463479  0.3773707580058137  0.8776203324875137  1.0000
  C   C8        1.0  0.008833161605965893  0.6226292422058113  0.12237966738843283  1.0000
  C   C9        1.0  0.8706046779880877  0.07714882232818097  0.12497139109241055  1.0000
  C   C10       1.0  0.1293953212310375  0.922851176884803  0.8750286087787889  1.0000
  C   C11       1.0  0.6388156512524706  0.14797011731029697  0.024279066553315465  1.0000
  C   C12       1.0  0.361184348999843  0.852029882901328  0.975720933322631  1.0000
  C   C13       1.0  0.7187096877134143  0.2583679884497336  0.9419545117245017  1.0000
  C   C14       1.0  0.2812903125388991  0.7416320117618913  0.058045488151444814  1.0000
  C   C15       1.0  0.7140325112537201  0.05889676954312878  0.11390389908249451  1.0000
  C   C16       1.0  0.2859674889985934  0.9411032306684962  0.8860961007934519  1.0000
  C   C17       1.0  0.8063841231471384  0.6855663906527187  0.5443308668784291  1.0000
  C   C18       1.0  0.1936158771051752  0.3144336095589062  0.4556691329975173  1.0000
  C   C19       1.0  0.12658737867820435  0.7423811574579265  0.580546495706383  1.0000
  C   C20       1.0  0.8734126215741093  0.25761884275369845  0.4194535041695634  1.0000
  C   C21       1.0  0.6241445868523461  0.637888239209084  0.7636107934401277  1.0000
  C   C22       1.0  0.3758554133999674  0.362111761002541  0.23638920643581862  1.0000
  C   C23       1.0  0.07740526002967266  0.8030412502910983  0.4641409960358236  1.0000
  C   C24       1.0  0.9225947402226409  0.19695874992052675  0.5358590038401227  1.0000
  C   C25       1.0  0.7511208436962813  0.5748699298307388  0.5081793203961221  1.0000
  C   C26       1.0  0.24887915655603235  0.4251300703808861  0.4918206794798242  1.0000
  C   C27       1.0  0.9235556116798788  0.7720229930524641  0.43863774804649186  1.0000
  C   C28       1.0  0.07644438857243484  0.2279770071591608  0.5613622518294547  1.0000
  C   C29       1.0  0.742472209316501  0.7164382002492518  0.6747758892564525  1.0000
  C   C30       1.0  0.2575277899026242  0.28356179896373235  0.3252241106147467  1.0000
  C   C31       1.0  0.6346687699349187  0.500322060459041  0.6032647455448183  1.0000
  C   C32       1.0  0.36533123031739495  0.49967793975258396  0.39673525433112805  1.0000
  C   C33       1.0  0.18031958289712738  0.8903403921877342  0.36601830821325154  1.0000
  C   C34       1.0  0.8196804173551862  0.10965960802389085  0.6339816916626949  1.0000
  C   C35       1.0  0.27598351708546043  0.7685874314101876  0.5985002381589112  1.0000
  C   C36       1.0  0.7240164819843151  0.2314125688130324  0.4014997617214679  1.0000
  C   C37       1.0  0.3293285878507864  0.9156238310839194  0.3845460030135004  1.0000
  C   C38       1.0  0.6706714124015272  0.08437616912770549  0.6154539968624461  1.0000
  C   C39       1.0  0.37790576762028455  0.8546147050131767  0.5005739000784931  1.0000
  C   C40       1.0  0.6220942326320289  0.14538529519844837  0.49942609979745334  1.0000
  N   N1        1.0  0.13035612050419934  0.3444177866239642  0.928732479582495  1.0000
  N   N2        1.0  0.8696438785655763  0.6555822135992557  0.07126752029788395  1.0000
  N   N3        1.0  0.571195816095423  0.5330253109056409  0.7274857105664454  1.0000
  N   N4        1.0  0.4288041838506011  0.46697468915037005  0.2725142903126513  1.0000
  O   O1        1.0  0.22170925284187712  0.17361194289682597  0.0829186387513344  1.0000
  O   O2        1.0  0.7782907474104364  0.826388057314799  0.917081361124612  1.0000
  O   O3        1.0  0.9743276818793184  0.47124197171794013  0.788094445209629  1.0000
  O   O4        1.0  0.025672318372995384  0.5287580284936848  0.21190555466631736  1.0000
  O   O5        1.0  0.8872136867321591  0.8131765976196154  0.33086687119061936  1.0000
  O   O6        1.0  0.11278631352015445  0.18682340259200964  0.669133128685327  1.0000
  Br  Br1       1.0  0.3351830884105943  0.4304121102753199  0.8460400496061116  1.0000
  Br  Br2       1.0  0.6648169106591812  0.5695878899479001  0.1539599502742676  1.0000
