data_image0
_chemical_formula_structural       H88C136N16O16Br8
_chemical_formula_sum              "H88 C136 N16 O16 Br8"
_cell_length_a       14.895446468369881
_cell_length_b       7.525439692027929
_cell_length_c       24.95930890211504
_cell_angle_alpha    90.0
_cell_angle_beta     90.0
_cell_angle_gamma    90.0

_space_group_name_H-M_alt    "P 1"
_space_group_IT_number       1

loop_
  _space_group_symop_operation_xyz
  'x, y, z'

loop_
  _atom_site_type_symbol
  _atom_site_label
  _atom_site_symmetry_multiplicity
  _atom_site_fract_x
  _atom_site_fract_y
  _atom_site_fract_z
  _atom_site_occupancy
  H   H1        1.0  0.003396052619665852  0.3604115468327022  0.23098148641092642  1.0000
  H   H2        1.0  0.49660394777072586  0.6395884542266475  0.7309814863685566  1.0000
  H   H3        1.0  0.5033960523387114  0.13958845369697256  0.7690185139049862  1.0000
  H   H4        1.0  0.9966039474897715  0.8604115460335511  0.269018513947356  1.0000
  H   H5        1.0  0.9966039474897715  0.6395884542266475  0.7690185139049862  1.0000
  H   H6        1.0  0.5033960523387114  0.3604115468327022  0.269018513947356  1.0000
  H   H7        1.0  0.49660394777072586  0.8604115460335511  0.23098148641092642  1.0000
  H   H8        1.0  0.003396052619665852  0.13958845369697256  0.7309814863685566  1.0000
  H   H9        1.0  0.826780969348665  0.15180243636929014  0.35270702985105534  1.0000
  H   H10       1.0  0.6732190304798179  0.8481975633612335  0.8527070298086855  1.0000
  H   H11       1.0  0.3267809689582733  0.3481975628315586  0.6472929700642052  1.0000
  H   H12       1.0  0.17321903076077233  0.651802436898965  0.14729297010657494  1.0000
  H   H13       1.0  0.17321903076077233  0.8481975633612335  0.6472929700642052  1.0000
  H   H14       1.0  0.3267809689582733  0.15180243636929014  0.14729297010657494  1.0000
  H   H15       1.0  0.6732190304798179  0.651802436898965  0.35270702985105534  1.0000
  H   H16       1.0  0.826780969348665  0.3481975628315586  0.8527070298086855  1.0000
  H   H17       1.0  0.6917412272186575  0.23261747906297664  0.29818746621503295  1.0000
  H   H18       1.0  0.8082587726098255  0.767382520667547  0.7981874661726633  1.0000
  H   H19       1.0  0.1917412274996119  0.26738252013787217  0.7018125337002276  1.0000
  H   H20       1.0  0.30825877289077985  0.7326174795926514  0.2018125337425973  1.0000
  H   H21       1.0  0.30825877289077985  0.767382520667547  0.7018125337002276  1.0000
  H   H22       1.0  0.1917412274996119  0.23261747906297664  0.2018125337425973  1.0000
  H   H23       1.0  0.8082587726098255  0.7326174795926514  0.29818746621503295  1.0000
  H   H24       1.0  0.6917412272186575  0.26738252013787217  0.7981874661726633  1.0000
  H   H25       1.0  0.9803805559645059  0.2104888664084349  0.3181641527473171  1.0000
  H   H26       1.0  0.5196194445353233  0.7895111333220887  0.8181641527049474  1.0000
  H   H27       1.0  0.48038055557411413  0.2895111327924139  0.6818358475685956  1.0000
  H   H28       1.0  0.019619444144931497  0.7104888669381098  0.1818358476109653  1.0000
  H   H29       1.0  0.019619444144931497  0.7895111333220887  0.6818358475685956  1.0000
  H   H30       1.0  0.48038055557411413  0.2104888664084349  0.1818358476109653  1.0000
  H   H31       1.0  0.5196194445353233  0.7104888669381098  0.3181641527473171  1.0000
  H   H32       1.0  0.9803805559645059  0.2895111327924139  0.8181641527049474  1.0000
  H   H33       1.0  0.4893329196595522  0.3957072439441122  0.8556350780285547  1.0000
  H   H34       1.0  0.010667080730839525  0.6042927557864115  0.35563507807092437  1.0000
  H   H35       1.0  0.9893329193785978  0.1042927552567366  0.14436492188670588  1.0000
  H   H36       1.0  0.5106670804498852  0.895707244473787  0.644364921844336  1.0000
  H   H37       1.0  0.5106670804498852  0.6042927557864115  0.14436492188670588  1.0000
  H   H38       1.0  0.9893329193785978  0.3957072439441122  0.644364921844336  1.0000
  H   H39       1.0  0.010667080730839525  0.895707244473787  0.8556350780285547  1.0000
  H   H40       1.0  0.4893329196595522  0.1042927552567366  0.35563507807092437  1.0000
  H   H41       1.0  0.6057001278315737  0.8569486985367323  0.03431703791796167  1.0000
  H   H42       1.0  0.8942998726682554  0.1430513011937914  0.5343170378755919  1.0000
  H   H43       1.0  0.10570012744118194  0.6430513017234663  0.9656829619972987  1.0000
  H   H44       1.0  0.39429987227786367  0.3569486980070574  0.46568296203966864  1.0000
  H   H45       1.0  0.39429987227786367  0.1430513011937914  0.9656829619972987  1.0000
  H   H46       1.0  0.10570012744118194  0.8569486985367323  0.46568296203966864  1.0000
  H   H47       1.0  0.8942998726682554  0.3569486980070574  0.03431703791796167  1.0000
  H   H48       1.0  0.6057001278315737  0.6430513017234663  0.5343170378755919  1.0000
  H   H49       1.0  0.4577081415100489  0.6977550050082194  0.8933140656034193  1.0000
  H   H50       1.0  0.04229185888034283  0.30224499472230426  0.39331406564578897  1.0000
  H   H51       1.0  0.9577081412290945  0.8022449952519791  0.1066859347124934  1.0000
  H   H52       1.0  0.5422918585993884  0.19775500447854455  0.6066859346701237  1.0000
  H   H53       1.0  0.5422918585993884  0.30224499472230426  0.1066859347124934  1.0000
  H   H54       1.0  0.9577081412290945  0.6977550050082194  0.6066859346701237  1.0000
  H   H55       1.0  0.04229185888034283  0.19775500447854455  0.8933140656034193  1.0000
  H   H56       1.0  0.4577081415100489  0.8022449952519791  0.39331406564578897  1.0000
  H   H57       1.0  0.493131461725421  0.9279599459680427  0.9610198601279143  1.0000
  H   H58       1.0  0.0068685386649707135  0.07204005376248095  0.461019860170284  1.0000
  H   H59       1.0  0.9931314614444665  0.5720400529633298  0.038980139787346255  1.0000
  H   H60       1.0  0.5068685383840164  0.4279599467671939  0.5389801397449765  1.0000
  H   H61       1.0  0.5068685383840164  0.07204005376248095  0.038980139787346255  1.0000
  H   H62       1.0  0.9931314614444665  0.9279599459680427  0.5389801397449765  1.0000
  H   H63       1.0  0.0068685386649707135  0.4279599467671939  0.9610198601279143  1.0000
  H   H64       1.0  0.493131461725421  0.5720400529633298  0.461019860170284  1.0000
  H   H65       1.0  0.5747677357761629  0.11192542555251324  0.8603967066644311  1.0000
  H   H66       1.0  0.925232264723666  0.8880745741780104  0.360396706706801  1.0000
  H   H67       1.0  0.07476773538577124  0.38807457497716163  0.1396032936514814  1.0000
  H   H68       1.0  0.4252322643332744  0.611925424753362  0.6396032936091117  1.0000
  H   H69       1.0  0.4252322643332744  0.8880745741780104  0.1396032936514814  1.0000
  H   H70       1.0  0.07476773538577124  0.11192542555251324  0.6396032936091117  1.0000
  H   H71       1.0  0.925232264723666  0.611925424753362  0.8603967066644311  1.0000
  H   H72       1.0  0.5747677357761629  0.38807457497716163  0.360396706706801  1.0000
  H   H73       1.0  0.7187590175785891  0.3021572842326834  0.9990015852517082  1.0000
  H   H74       1.0  0.7812409822498939  0.6978427154978403  0.4990015852940781  1.0000
  H   H75       1.0  0.21875901785954344  0.19784271629699143  0.0009984150642042943  1.0000
  H   H76       1.0  0.2812409825308483  0.8021572847623581  0.5009984150218346  1.0000
  H   H77       1.0  0.2812409825308483  0.6978427154978403  0.0009984150642042943  1.0000
  H   H78       1.0  0.21875901785954344  0.3021572842326834  0.5009984150218346  1.0000
  H   H79       1.0  0.7812409822498939  0.8021572847623581  0.9990015852517082  1.0000
  H   H80       1.0  0.7187590175785891  0.19784271629699143  0.4990015852940781  1.0000
  H   H81       1.0  0.6925663391094691  0.06960831412348203  0.9305334014289107  1.0000
  H   H82       1.0  0.80743366139036  0.9303916856070417  0.43053340147128055  1.0000
  H   H83       1.0  0.1925663387190774  0.43039168507736675  0.06946659848634973  1.0000
  H   H84       1.0  0.3074336609999682  0.5696083146531569  0.56946659844398  1.0000
  H   H85       1.0  0.3074336609999682  0.9303916856070417  0.06946659848634973  1.0000
  H   H86       1.0  0.1925663387190774  0.06960831412348203  0.56946659844398  1.0000
  H   H87       1.0  0.80743366139036  0.5696083146531569  0.9305334014289107  1.0000
  H   H88       1.0  0.6925663391094691  0.43039168507736675  0.43053340147128055  1.0000
  C   C1        1.0  0.7079018190150271  0.4032864422812435  0.1933683227739939  1.0000
  C   C2        1.0  0.792098180813456  0.5967135574492801  0.6933683227316242  1.0000
  C   C3        1.0  0.20790181929598142  0.09671355824843131  0.8066316771412667  1.0000
  C   C4        1.0  0.29209818109441027  0.9032864428109183  0.3066316771836364  1.0000
  C   C5        1.0  0.29209818109441027  0.5967135574492801  0.8066316771412667  1.0000
  C   C6        1.0  0.20790181929598142  0.4032864422812435  0.3066316771836364  1.0000
  C   C7        1.0  0.792098180813456  0.9032864428109183  0.1933683227739939  1.0000
  C   C8        1.0  0.7079018190150271  0.09671355824843131  0.6933683227316242  1.0000
  C   C9        1.0  0.8512370667723677  0.45971228281383475  0.1613311384458557  1.0000
  C   C10       1.0  0.6487629330561154  0.540287716916689  0.6613311384034859  1.0000
  C   C11       1.0  0.35123706705332197  0.04028771638701411  0.8386688614694048  1.0000
  C   C12       1.0  0.14876293333706975  0.9597122833435094  0.33866886151177455  1.0000
  C   C13       1.0  0.14876293333706975  0.540287716916689  0.8386688614694048  1.0000
  C   C14       1.0  0.35123706705332197  0.45971228281383475  0.33866886151177455  1.0000
  C   C15       1.0  0.6487629330561154  0.9597122833435094  0.1613311384458557  1.0000
  C   C16       1.0  0.8512370667723677  0.04028771638701411  0.6613311384034859  1.0000
  C   C17       1.0  0.9356622461498625  0.3312823385776391  0.24482772756108565  1.0000
  C   C18       1.0  0.5643377536786206  0.6687176624817106  0.7448277275187158  1.0000
  C   C19       1.0  0.4356622457594707  0.16871766195203575  0.755172272354175  1.0000
  C   C20       1.0  0.06433775395957488  0.8312823377784878  0.2551722723965446  1.0000
  C   C21       1.0  0.06433775395957488  0.6687176624817106  0.755172272354175  1.0000
  C   C22       1.0  0.4356622457594707  0.3312823385776391  0.2551722723965446  1.0000
  C   C23       1.0  0.5643377536786206  0.8312823377784878  0.24482772756108565  1.0000
  C   C24       1.0  0.9356622461498625  0.16871766195203575  0.7448277275187158  1.0000
  C   C25       1.0  0.8600617549265043  0.37578502994260726  0.21527216442858685  1.0000
  C   C26       1.0  0.6399382449019787  0.6242149697879164  0.7152721643862171  1.0000
  C   C27       1.0  0.36006175453611244  0.12421497058706757  0.7847278354866738  1.0000
  C   C28       1.0  0.13993824518293313  0.8757850304722821  0.2847278355290434  1.0000
  C   C29       1.0  0.13993824518293313  0.6242149697879164  0.7847278354866738  1.0000
  C   C30       1.0  0.36006175453611244  0.37578502994260726  0.2847278355290434  1.0000
  C   C31       1.0  0.6399382449019787  0.8757850304722821  0.21527216442858685  1.0000
  C   C32       1.0  0.8600617549265043  0.12421497058706757  0.7152721643862171  1.0000
  C   C33       1.0  0.773422550607224  0.34051864274650145  0.2343950368555375  1.0000
  C   C34       1.0  0.7265774498926052  0.6594813569840222  0.7343950368131678  1.0000
  C   C35       1.0  0.2734225502168322  0.15948135778317335  0.765604963059723  1.0000
  C   C36       1.0  0.22657744950221342  0.8405186419473503  0.26560496310209275  1.0000
  C   C37       1.0  0.22657744950221342  0.6594813569840222  0.765604963059723  1.0000
  C   C38       1.0  0.2734225502168322  0.34051864274650145  0.26560496310209275  1.0000
  C   C39       1.0  0.7265774498926052  0.8405186419473503  0.2343950368555375  1.0000
  C   C40       1.0  0.773422550607224  0.15948135778317335  0.7343950368131678  1.0000
  C   C41       1.0  0.8354557217486271  0.21405832295838984  0.31361604725107955  1.0000
  C   C42       1.0  0.6645442780798557  0.7859416767721339  0.8136160472087098  1.0000
  C   C43       1.0  0.3354557220295816  0.285941676242459  0.6863839530648331  1.0000
  C   C44       1.0  0.16454427836081012  0.7140583234880646  0.18638395270655073  1.0000
  C   C45       1.0  0.16454427836081012  0.7859416767721339  0.6863839530648331  1.0000
  C   C46       1.0  0.3354557220295816  0.21405832295838984  0.18638395270655073  1.0000
  C   C47       1.0  0.6645442780798557  0.7140583234880646  0.31361604725107955  1.0000
  C   C48       1.0  0.8354557217486271  0.285941676242459  0.8136160472087098  1.0000
  C   C49       1.0  0.7592965383089818  0.2598058864349403  0.28360066129075284  1.0000
  C   C50       1.0  0.7407034615195011  0.7401941132955834  0.7836006612483831  1.0000
  C   C51       1.0  0.2592965385899362  0.2401941127659085  0.7163993386245076  1.0000
  C   C52       1.0  0.24070346180045551  0.7598058869646152  0.2163993386668774  1.0000
  C   C53       1.0  0.24070346180045551  0.7401941132955834  0.7163993386245076  1.0000
  C   C54       1.0  0.2592965385899362  0.2598058864349403  0.2163993386668774  1.0000
  C   C55       1.0  0.7407034615195011  0.7598058869646152  0.28360066129075284  1.0000
  C   C56       1.0  0.7592965383089818  0.2401941127659085  0.7836006612483831  1.0000
  C   C57       1.0  0.9220650813767165  0.24815175144892643  0.29447989721290574  1.0000
  C   C58       1.0  0.5779349184517665  0.7518482496104232  0.7944798975711881  1.0000
  C   C59       1.0  0.4220650816576709  0.2518482490807484  0.7055201027023548  1.0000
  C   C60       1.0  0.0779349180613747  0.7481517506497752  0.20552010274472451  1.0000
  C   C61       1.0  0.0779349180613747  0.7518482496104232  0.7055201027023548  1.0000
  C   C62       1.0  0.4220650816576709  0.24815175144892643  0.20552010274472451  1.0000
  C   C63       1.0  0.5779349184517665  0.7481517506497752  0.29447989721290574  1.0000
  C   C64       1.0  0.9220650813767165  0.2518482490807484  0.7944798975711881  1.0000
  C   C65       1.0  0.5406026651902867  0.3744870061194481  0.8861649257494356  1.0000
  C   C66       1.0  0.9593973346381964  0.6255129949399015  0.38616492579180534  1.0000
  C   C67       1.0  0.040602664799894855  0.12551299441022676  0.11383507416582493  1.0000
  C   C68       1.0  0.45939733491915075  0.8744870053202969  0.6138350741234552  1.0000
  C   C69       1.0  0.45939733491915075  0.6255129949399015  0.11383507416582493  1.0000
  C   C70       1.0  0.040602664799894855  0.3744870061194481  0.6138350741234552  1.0000
  C   C71       1.0  0.9593973346381964  0.8744870053202969  0.8861649257494356  1.0000
  C   C72       1.0  0.5406026651902867  0.12551299441022676  0.38616492579180534  1.0000
  C   C73       1.0  0.5910175508128578  0.7630796186013324  0.0020250945327944096  1.0000
  C   C74       1.0  0.9089824490156252  0.23692038112919123  0.5020250944904247  1.0000
  C   C75       1.0  0.09101755109381218  0.736920381658866  0.9979749053824661  1.0000
  C   C76       1.0  0.4089824492965795  0.26307961807165764  0.49797490542483586  1.0000
  C   C77       1.0  0.4089824492965795  0.23692038112919123  0.9979749053824661  1.0000
  C   C78       1.0  0.09101755109381218  0.7630796186013324  0.49797490542483586  1.0000
  C   C79       1.0  0.9089824490156252  0.26307961807165764  0.0020250945327944096  1.0000
  C   C80       1.0  0.5910175508128578  0.736920381658866  0.5020250944904247  1.0000
  C   C81       1.0  0.5089393443894288  0.6740559379372374  0.9235983219890578  1.0000
  C   C82       1.0  0.9910606554390542  0.3259440617932863  0.42359832203142744  1.0000
  C   C83       1.0  0.008939344670383162  0.825944060994135  0.07640167792620281  1.0000
  C   C84       1.0  0.4910606550486624  0.17405593873638858  0.5764016782844852  1.0000
  C   C85       1.0  0.4910606550486624  0.3259440617932863  0.07640167792620281  1.0000
  C   C86       1.0  0.008939344670383162  0.6740559379372374  0.5764016782844852  1.0000
  C   C87       1.0  0.9910606554390542  0.17405593873638858  0.9235983219890578  1.0000
  C   C88       1.0  0.5089393443894288  0.825944060994135  0.42359832203142744  1.0000
  C   C89       1.0  0.6212847174236307  0.48327534055620774  0.9654872770919533  1.0000
  C   C90       1.0  0.8787152824048522  0.5167246591743159  0.46548727713432303  1.0000
  C   C91       1.0  0.12128471770458508  0.01672465997346709  0.03451272282330719  1.0000
  C   C92       1.0  0.3787152820144605  0.9832753397570566  0.5345127227809375  1.0000
  C   C93       1.0  0.3787152820144605  0.5167246591743159  0.03451272282330719  1.0000
  C   C94       1.0  0.12128471770458508  0.48327534055620774  0.5345127227809375  1.0000
  C   C95       1.0  0.8787152824048522  0.9832753397570566  0.9654872770919533  1.0000
  C   C96       1.0  0.6212847174236307  0.01672465997346709  0.46548727713432303  1.0000
  C   C97       1.0  0.5561449640056733  0.5111250315479541  0.9241621320711072  1.0000
  C   C98       1.0  0.9438550364941558  0.48887496818256965  0.4241621321134769  1.0000
  C   C99       1.0  0.05614496361528148  0.9888749687122445  0.07583786824480544  1.0000
  C   C100      1.0  0.44385503610376414  0.011125032347105188  0.5758378682024357  1.0000
  C   C101      1.0  0.44385503610376414  0.48887496818256965  0.07583786824480544  1.0000
  C   C102      1.0  0.05614496361528148  0.5111250315479541  0.5758378682024357  1.0000
  C   C103      1.0  0.9438550364941558  0.011125032347105188  0.9241621320711072  1.0000
  C   C104      1.0  0.5561449640056733  0.9888749687122445  0.4241621321134769  1.0000
  C   C105      1.0  0.5276680955277309  0.8009981352166857  0.9617765489478679  1.0000
  C   C106      1.0  0.9723319043007521  0.19900186451383792  0.4617765489902377  1.0000
  C   C107      1.0  0.027668095808685234  0.6990018650435127  0.03822345096739261  1.0000
  C   C108      1.0  0.47233190391036034  0.30099813468701087  0.5382234509250229  1.0000
  C   C109      1.0  0.47233190391036034  0.19900186451383792  0.03822345096739261  1.0000
  C   C110      1.0  0.027668095808685234  0.8009981352166857  0.5382234509250229  1.0000
  C   C111      1.0  0.9723319043007521  0.30099813468701087  0.9617765489478679  1.0000
  C   C112      1.0  0.5276680955277309  0.6990018650435127  0.4617765489902377  1.0000
  C   C113      1.0  0.5888496748738203  0.21839198601791157  0.8887097650416252  1.0000
  C   C114      1.0  0.9111503256260087  0.7816080137126121  0.38870976508399496  1.0000
  C   C115      1.0  0.08884967448342858  0.28160801318293727  0.11129023487363535  1.0000
  C   C116      1.0  0.411150325235617  0.7183919865475863  0.6112902352319177  1.0000
  C   C117      1.0  0.411150325235617  0.7816080137126121  0.11129023487363535  1.0000
  C   C118      1.0  0.08884967448342858  0.21839198601791157  0.6112902352319177  1.0000
  C   C119      1.0  0.9111503256260087  0.7183919865475863  0.8887097650416252  1.0000
  C   C120      1.0  0.5888496748738203  0.28160801318293727  0.38870976508399496  1.0000
  C   C121      1.0  0.6702839375242065  0.32248400615991457  0.9670529286151287  1.0000
  C   C122      1.0  0.8297160623042764  0.6775159935706091  0.4670529286574984  1.0000
  C   C123      1.0  0.17028393780516088  0.17751599304093424  0.03294707130013186  1.0000
  C   C124      1.0  0.32971606258523084  0.8224840066895893  0.5329470712577621  1.0000
  C   C125      1.0  0.32971606258523084  0.6775159935706091  0.03294707130013186  1.0000
  C   C126      1.0  0.17028393780516088  0.32248400615991457  0.5329470712577621  1.0000
  C   C127      1.0  0.8297160623042764  0.8224840066895893  0.9670529286151287  1.0000
  C   C128      1.0  0.6702839375242065  0.17751599304093424  0.4670529286574984  1.0000
  C   C129      1.0  0.6545415191617938  0.193407509669084  0.9289534077618321  1.0000
  C   C130      1.0  0.8454584813380351  0.8065924900614396  0.42895340780420194  1.0000
  C   C131      1.0  0.15454151877140215  0.3065924908605908  0.07104659215342833  1.0000
  C   C132      1.0  0.3454584809476434  0.6934075088699329  0.5710465921110586  1.0000
  C   C133      1.0  0.3454584809476434  0.8065924900614396  0.07104659215342833  1.0000
  C   C134      1.0  0.15454151877140215  0.193407509669084  0.5710465921110586  1.0000
  C   C135      1.0  0.8454584813380351  0.6934075088699329  0.9289534077618321  1.0000
  C   C136      1.0  0.6545415191617938  0.3065924908605908  0.42895340780420194  1.0000
  N   N1        1.0  0.7592469788680098  0.4775805836046107  0.1520848844367776  1.0000
  N   N2        1.0  0.7407530216318192  0.5224194161259129  0.6520848843944079  1.0000
  N   N3        1.0  0.25924697847761813  0.022419416925064085  0.847915115478483  1.0000
  N   N4        1.0  0.24075302124142747  0.9775805828054596  0.34791511552085264  1.0000
  N   N5        1.0  0.24075302124142747  0.5224194161259129  0.847915115478483  1.0000
  N   N6        1.0  0.25924697847761813  0.4775805836046107  0.34791511552085264  1.0000
  N   N7        1.0  0.7407530216318192  0.9775805828054596  0.1520848844367776  1.0000
  N   N8        1.0  0.7592469788680098  0.022419416925064085  0.6520848843944079  1.0000
  N   N9        1.0  0.635448260654644  0.6104871951690541  0.0037325712969602885  1.0000
  N   N10       1.0  0.864551739173839  0.38951280456146953  0.5037325712545906  1.0000
  N   N11       1.0  0.1354482609355983  0.8895128050911444  0.9962674290189524  1.0000
  N   N12       1.0  0.3645517394547934  0.11048719463937927  0.4962674290613221  1.0000
  N   N13       1.0  0.3645517394547934  0.38951280456146953  0.9962674290189524  1.0000
  N   N14       1.0  0.1354482609355983  0.6104871951690541  0.4962674290613221  1.0000
  N   N15       1.0  0.864551739173839  0.11048719463937927  0.0037325712969602885  1.0000
  N   N16       1.0  0.635448260654644  0.8895128050911444  0.5037325712545906  1.0000
  O   O1        1.0  0.9111233106586593  0.5034848148492662  0.1301317994315446  1.0000
  O   O2        1.0  0.5888766891698237  0.4965151862100835  0.6301317993891749  1.0000
  O   O3        1.0  0.4111233109396136  0.9965151854109323  0.8698682004837159  1.0000
  O   O4        1.0  0.08887668945077813  0.0034848143195913444  0.36986820052608566  1.0000
  O   O5        1.0  0.08887668945077813  0.4965151862100835  0.8698682004837159  1.0000
  O   O6        1.0  0.4111233109396136  0.5034848148492662  0.36986820052608566  1.0000
  O   O7        1.0  0.5888766891698237  0.0034848143195913444  0.1301317994315446  1.0000
  O   O8        1.0  0.9111233106586593  0.9965151854109323  0.6301317993891749  1.0000
  O   O9        1.0  0.6256201571257659  0.3926612132883509  0.19425235005561986  1.0000
  O   O10       1.0  0.8743798427027171  0.6073387877709987  0.6942523500132501  1.0000
  O   O11       1.0  0.12562015673537416  0.10733878724132392  0.8057476498596406  1.0000
  O   O12       1.0  0.37437984298367144  0.8926612124891997  0.3057476499020104  1.0000
  O   O13       1.0  0.37437984298367144  0.6073387877709987  0.8057476498596406  1.0000
  O   O14       1.0  0.12562015673537416  0.3926612132883509  0.3057476499020104  1.0000
  O   O15       1.0  0.8743798427027171  0.8926612124891997  0.19425235005561986  1.0000
  O   O16       1.0  0.6256201571257659  0.10733878724132392  0.6942523500132501  1.0000
  Br  Br1       1.0  0.7070926180269537  0.5442524526957302  0.0823677774117291  1.0000
  Br  Br2       1.0  0.7929073818015293  0.4557475470347935  0.5823677773693594  1.0000
  Br  Br3       1.0  0.20709261830790798  0.9557475475644682  0.9176322225035314  1.0000
  Br  Br4       1.0  0.2929073814111376  0.04425245216605532  0.41763222254590116  1.0000
  Br  Br5       1.0  0.2929073814111376  0.4557475470347935  0.9176322225035314  1.0000
  Br  Br6       1.0  0.20709261830790798  0.5442524526957302  0.41763222254590116  1.0000
  Br  Br7       1.0  0.7929073818015293  0.04425245216605532  0.0823677774117291  1.0000
  Br  Br8       1.0  0.7070926180269537  0.9557475475644682  0.5823677773693594  1.0000
