data_image0
_chemical_formula_structural       H44C56N8O8Br4
_chemical_formula_sum              "H44 C56 N8 O8 Br4"
_cell_length_a       11.11450530126698
_cell_length_b       4.969170573563705
_cell_length_c       23.04393294843301
_cell_angle_alpha    90.0
_cell_angle_beta     97.38816051588697
_cell_angle_gamma    90.0

_space_group_name_H-M_alt    "P 1"
_space_group_IT_number       1

loop_
  _space_group_symop_operation_xyz
  'x, y, z'

loop_
  _atom_site_type_symbol
  _atom_site_label
  _atom_site_symmetry_multiplicity
  _atom_site_fract_x
  _atom_site_fract_y
  _atom_site_fract_z
  _atom_site_occupancy
  H   H1        1.0  0.4521181912759129  0.9940737648008355  0.24099743420798558  1.0000
  H   H2        1.0  0.5478818083804519  0.4940737641532129  0.25900256567055235  1.0000
  H   H3        1.0  0.5478818084024294  0.0059262344820014195  0.7590025655328299  1.0000
  H   H4        1.0  0.4521181912978904  0.505926235129624  0.7409974340702631  1.0000
  H   H5        1.0  0.035295321239755595  0.27150020914505524  0.280310425797768  1.0000
  H   H6        1.0  0.9647046785318749  0.7715002097926779  0.21968957451835605  1.0000
  H   H7        1.0  0.9647046785538523  0.7284997901377818  0.7196895743806334  1.0000
  H   H8        1.0  0.03529532126173317  0.2284997915025674  0.7803104256600455  1.0000
  H   H9        1.0  0.13197775801219702  0.48117862017467855  0.19896970092372088  1.0000
  H   H10       1.0  0.8680222417594334  0.9811786208223012  0.30103029939240317  1.0000
  H   H11       1.0  0.8680222417814109  0.5188213791081584  0.8010302992546806  1.0000
  H   H12       1.0  0.13197775803417455  0.01882138047294403  0.6989697007859983  1.0000
  H   H13       1.0  0.33919941618711585  0.34920457334100685  0.1815189702537468  1.0000
  H   H14       1.0  0.6608005835845145  0.8492045739886296  0.3184810300623772  1.0000
  H   H15       1.0  0.6608005836064921  0.6507954259418302  0.8184810299246547  1.0000
  H   H16       1.0  0.33919941620909344  0.1507954273066158  0.6815189701160244  1.0000
  H   H17       1.0  0.10849443381210912  0.03354970764878347  0.49864537554301264  1.0000
  H   H18       1.0  0.8915055659595214  0.5335497082964061  0.001354624773111422  1.0000
  H   H19       1.0  0.891505565981499  0.9664502916340535  0.5013546246353889  1.0000
  H   H20       1.0  0.1084944338340867  0.4664502929988391  0.9986453754052902  1.0000
  H   H21       1.0  0.3348460150752756  0.5797835307419972  0.6299516570276703  1.0000
  H   H22       1.0  0.6651539856402154  0.07978353210678277  0.8700483430136892  1.0000
  H   H23       1.0  0.6651539856182379  0.4202164685408399  0.37004834315141166  1.0000
  H   H24       1.0  0.3348460149380324  0.9202164691884626  0.1299516567278067  1.0000
  H   H25       1.0  0.4728080026801661  0.22493408174523605  0.5322065594124301  1.0000
  H   H26       1.0  0.527191998035325  0.7249340803804505  0.9677934406289295  1.0000
  H   H27       1.0  0.5271919978980817  0.7750659195500093  0.46779344032906567  1.0000
  H   H28       1.0  0.47280800265818856  0.2750659189023866  0.032206559550152614  1.0000
  H   H29       1.0  0.5098355820369173  0.8490409410466803  0.6069107062709802  1.0000
  H   H30       1.0  0.49016441777866826  0.3490409403990576  0.8930892937696989  1.0000
  H   H31       1.0  0.49016441775669073  0.15095905823615677  0.39308929390742137  1.0000
  H   H32       1.0  0.509835581899674  0.6509590588837795  0.1069107059711165  1.0000
  H   H33       1.0  0.12023365259479438  0.4697022260449634  0.6122348432149076  1.0000
  H   H34       1.0  0.8797663472207913  0.9697022266925861  0.8877651568257715  1.0000
  H   H35       1.0  0.879766347083548  0.5302977732378736  0.38776515652590776  1.0000
  H   H36       1.0  0.12023365257281679  0.030297772590250942  0.11223484335263012  1.0000
  H   H37       1.0  0.04974367804280907  0.538857467329738  0.540543017493444  1.0000
  H   H38       1.0  0.9502563217727766  0.03885746668211541  0.959456982547235  1.0000
  H   H39       1.0  0.9502563226507044  0.46114253396550725  0.45945698268563795  1.0000
  H   H40       1.0  0.0497436780208315  0.9611425326007216  0.04054301763116654  1.0000
  H   H41       1.0  0.029241855491491928  0.7630693440415843  0.5979769670005529  1.0000
  H   H42       1.0  0.9707581443240937  0.26306934540637  0.9020230330401261  1.0000
  H   H43       1.0  0.970758144302116  0.23693065524125267  0.4020230331778486  1.0000
  H   H44       1.0  0.02924185535424871  0.7369306558888753  0.0979769667006893  1.0000
  C   C1        1.0  0.3494914742910591  0.7203406578641389  0.3371767401499005  1.0000
  C   C2        1.0  0.6505085254805714  0.22034065721651627  0.1628232601662235  1.0000
  C   C3        1.0  0.650508525502549  0.2796593414186981  0.662823260028501  1.0000
  C   C4        1.0  0.3494914743130367  0.7796593420663207  0.837176740012178  1.0000
  C   C5        1.0  0.15839489246720084  0.8508058935412994  0.3556461660016305  1.0000
  C   C6        1.0  0.8416051080890694  0.35080589289367686  0.14435383387758777  1.0000
  C   C7        1.0  0.8416051082263126  0.14919410775394576  0.6443538341774514  1.0000
  C   C8        1.0  0.15839489248917843  0.6491941063891601  0.8556461658639081  1.0000
  C   C9        1.0  0.3057796810087575  0.9333416455200984  0.2938923805656528  1.0000
  C   C10       1.0  0.6942203195475127  0.4333416448724758  0.2061076193135655  1.0000
  C   C11       1.0  0.6942203195694903  0.06665835376273857  0.706107619175843  1.0000
  C   C12       1.0  0.3057796810307352  0.5666583544103613  0.7938923804279304  1.0000
  C   C13       1.0  0.18976595056935622  0.011472473958388489  0.30480006900092377  1.0000
  C   C14       1.0  0.8102340499869141  0.5114724746060112  0.19519993087829454  1.0000
  C   C15       1.0  0.8102340501241572  0.9885275253244485  0.6951999311781581  1.0000
  C   C16       1.0  0.1897659505913338  0.48852752467682586  0.8048000688632013  1.0000
  C   C17       1.0  0.3617778689209665  0.05160822439147696  0.24994022105433378  1.0000
  C   C18       1.0  0.6382221316353037  0.5516082230266913  0.25005977882488456  1.0000
  C   C19       1.0  0.6382221317725469  0.9483917769037682  0.7500597791247482  1.0000
  C   C20       1.0  0.3617778689429441  0.4483917762561457  0.7499402209166113  1.0000
  C   C21       1.0  0.1252408673852217  0.20903332148146947  0.2715676436688931  1.0000
  C   C22       1.0  0.874759132271143  0.7090333201166839  0.22843235620964483  1.0000
  C   C23       1.0  0.8747591322931207  0.7909666798137758  0.7284323560719225  1.0000
  C   C24       1.0  0.12524086752246488  0.29096667916615315  0.7715676439687567  1.0000
  C   C25       1.0  0.18074663563208998  0.32857501585602755  0.22661287519045523  1.0000
  C   C26       1.0  0.8192533641395405  0.8285750165036502  0.2733871251256688  1.0000
  C   C27       1.0  0.8192533641615182  0.6714249834268095  0.7733871249879464  1.0000
  C   C28       1.0  0.1807466356540676  0.17142498479159507  0.7266128750527328  1.0000
  C   C29       1.0  0.2972480260472707  0.2521703715840326  0.21629034066938133  1.0000
  C   C30       1.0  0.702751973609094  0.7521703702192469  0.2837096592091566  1.0000
  C   C31       1.0  0.7027519736310718  0.7478296297112127  0.7837096590714342  1.0000
  C   C32       1.0  0.2972480261845139  0.24782962906359005  0.7162903409692449  1.0000
  C   C33       1.0  0.20439711835424795  0.788877198310517  0.5683872203334309  1.0000
  C   C34       1.0  0.7956028814613376  0.28887719766289427  0.9316127797072481  1.0000
  C   C35       1.0  0.7956028813240944  0.21112280097232014  0.4316127794073846  1.0000
  C   C36       1.0  0.20439711833227037  0.7111228016199428  0.06838722047115335  1.0000
  C   C37       1.0  0.19428694500302135  0.9905119208798074  0.5255778866045901  1.0000
  C   C38       1.0  0.8057130548125643  0.4905119202321847  0.9744221134360889  1.0000
  C   C39       1.0  0.8057130547905866  0.0094880784030296  0.4744221135738115  1.0000
  C   C40       1.0  0.19428694486577813  0.5094880790506522  0.025577886304726502  1.0000
  C   C41       1.0  0.3205783144824647  0.739590781920838  0.5975351155306229  1.0000
  C   C42       1.0  0.679421685333121  0.2395907812732154  0.9024648845100562  1.0000
  C   C43       1.0  0.6794216853111433  0.260409217361999  0.4024648846477787  1.0000
  C   C44       1.0  0.32057831434522144  0.7604092180096217  0.09753511523075917  1.0000
  C   C45       1.0  0.4002299558700273  0.09458444483682292  0.5432803246168477  1.0000
  C   C46       1.0  0.5997700439455583  0.5945844434720373  0.9567196754238312  1.0000
  C   C47       1.0  0.5997700438083152  0.9054155564584224  0.4567196751239677  1.0000
  C   C48       1.0  0.4002299558480496  0.40541555581079974  0.04328032475457024  1.0000
  C   C49       1.0  0.4192705907565674  0.8920167811468616  0.5849834615920138  1.0000
  C   C50       1.0  0.5807294089437526  0.3920167825116472  0.9150165380110793  1.0000
  C   C51       1.0  0.5807294089217749  0.10798321813597547  0.4150165381488017  1.0000
  C   C52       1.0  0.41927059073458983  0.6079832187835981  0.08498346172973618  1.0000
  C   C53       1.0  0.09569480119586261  0.6313771369997383  0.5806702883462564  1.0000
  C   C54       1.0  0.9043051986197229  0.1313771363521157  0.9193297116944227  1.0000
  C   C55       1.0  0.9043051993823853  0.3686228642955069  0.41932971139523945  1.0000
  C   C56       1.0  0.09569480117388503  0.8686228629307213  0.08067028848397888  1.0000
  N   N1        1.0  0.2581554198271186  0.6853105341396553  0.37262049598050645  1.0000
  N   N2        1.0  0.7418445798292461  0.18531053349203264  0.1273795038980315  1.0000
  N   N3        1.0  0.7418445799664894  0.31468946715559004  0.6273795041978952  1.0000
  N   N4        1.0  0.2581554198490962  0.8146894657908044  0.8726204958427839  1.0000
  N   N5        1.0  0.2894036926715283  0.13697620959544907  0.5140122422459821  1.0000
  N   N6        1.0  0.7105963071440573  0.6369762102430717  0.985987757794697  1.0000
  N   N7        1.0  0.7105963070068141  0.8630237896873879  0.4859877574948334  1.0000
  N   N8        1.0  0.2894036926495507  0.3630237890397653  0.01401224238370447  1.0000
  O   O1        1.0  0.4465973433470089  0.5986356386769471  0.341869447693462  1.0000
  O   O2        1.0  0.5534026572092614  0.09863563802932442  0.15813055218575633  1.0000
  O   O3        1.0  0.5534026572312389  0.4013643606058899  0.6581305520480338  1.0000
  O   O4        1.0  0.4465973434842522  0.9013643612535125  0.8418694479933256  1.0000
  O   O5        1.0  0.06452532174406221  0.8584710137934876  0.37854392505538353  1.0000
  O   O6        1.0  0.9354746779123027  0.3584710151582732  0.12145607482315442  1.0000
  O   O7        1.0  0.9354746779342802  0.14152898548934945  0.6214560746854318  1.0000
  O   O8        1.0  0.06452532188130544  0.6415289861369721  0.8785439253552472  1.0000
  Br  Br1       1.0  0.2710279838068462  0.42756070023096426  0.43980717479458475  1.0000
  Br  Br2       1.0  0.7289720159647842  0.9275607008785869  0.06019282552153927  1.0000
  Br  Br3       1.0  0.7289720159867619  0.5724392990518727  0.5601928253838168  1.0000
  Br  Br4       1.0  0.27102798382882387  0.07243930041665841  0.9398071746568625  1.0000
