data_image0
_chemical_formula_structural       H96C92N12O12
_chemical_formula_sum              "H96 C92 N12 O12"
_cell_length_a       14.78692733980596
_cell_length_b       8.783917373287725
_cell_length_c       15.22535090357696
_cell_angle_alpha    90.0
_cell_angle_beta     93.63306664380353
_cell_angle_gamma    90.0

_space_group_name_H-M_alt    "P 1"
_space_group_IT_number       1

loop_
  _space_group_symop_operation_xyz
  'x, y, z'

loop_
  _atom_site_type_symbol
  _atom_site_label
  _atom_site_symmetry_multiplicity
  _atom_site_fract_x
  _atom_site_fract_y
  _atom_site_fract_z
  _atom_site_occupancy
  H   H1        1.0  0.7954239477791982  0.006759188124942215  0.06403805631857881  1.0000
  H   H2        1.0  0.2045760522084836  0.5067591885070197  0.4359619435858551  1.0000
  H   H3        1.0  0.20457605226180822  0.9932408115007686  0.9359619440469502  1.0000
  H   H4        1.0  0.7954239478279015  0.49324081111869117  0.5640380561226055  1.0000
  H   H5        1.0  0.8889749264223733  0.18298548605294931  0.1532095507930119  1.0000
  H   H6        1.0  0.1110250735653085  0.6829854864350269  0.34679044911142193  1.0000
  H   H7        1.0  0.11102507361863313  0.8170145135727616  0.8467904495725171  1.0000
  H   H8        1.0  0.8889749264710765  0.317014513190684  0.6532095505970387  1.0000
  H   H9        1.0  0.7847499463172409  0.28399456005655754  0.1462208025990398  1.0000
  H   H10       1.0  0.2152500536704409  0.783994560438635  0.35377919730539403  1.0000
  H   H11       1.0  0.21525005371914396  0.7160054395691533  0.8537791971094207  1.0000
  H   H12       1.0  0.7847499463705656  0.21600544032552  0.6462208030601349  1.0000
  H   H13       1.0  0.8551193982804558  0.06528174909110872  0.291736343133856  1.0000
  H   H14       1.0  0.14488060170722597  0.5652817494731862  0.20826365677057787  1.0000
  H   H15       1.0  0.14488060176055065  0.9347182505346022  0.7082636572316731  1.0000
  H   H16       1.0  0.855119398329159  0.43471825015252463  0.7917363429378828  1.0000
  H   H17       1.0  0.8364579477949994  0.2625856621800952  0.30192544736118404  1.0000
  H   H18       1.0  0.1635420521926824  0.7625856614237286  0.19807455254324985  1.0000
  H   H19       1.0  0.16354205224138554  0.7374143385840598  0.6980745523472764  1.0000
  H   H20       1.0  0.8364579478483241  0.2374143382019823  0.8019254478222791  1.0000
  H   H21       1.0  0.721525973250712  0.25153862520601217  0.41090819322805955  1.0000
  H   H22       1.0  0.2784740267415914  0.7515386255880897  0.08909180733344281  1.0000
  H   H23       1.0  0.27847402679029454  0.7484613744196987  0.5890918071374696  1.0000
  H   H24       1.0  0.7215259732994151  0.24846137403762117  0.9109081930320861  1.0000
  H   H25       1.0  0.5281467335183835  0.9437623315094059  0.19908528661732233  1.0000
  H   H26       1.0  0.47185326646929837  0.4437623322657726  0.30091471328711156  1.0000
  H   H27       1.0  0.471853266522623  0.05623766811630493  0.8009147137482068  1.0000
  H   H28       1.0  0.5281467335670866  0.5562376684983824  0.6990852864213489  1.0000
  H   H29       1.0  0.605980313268919  0.7965956261472679  0.13332908640472665  1.0000
  H   H30       1.0  0.39401968671876286  0.2965956257651904  0.3666709134997072  1.0000
  H   H31       1.0  0.394019686767466  0.20340437461688718  0.8666709133037339  1.0000
  H   H32       1.0  0.605980313317622  0.7034043738605206  0.6333290862087533  1.0000
  H   H33       1.0  0.5879103701544064  0.6343582974659067  0.018929343109659998  1.0000
  H   H34       1.0  0.41208962983327546  0.13435829822227335  0.4810706567947739  1.0000
  H   H35       1.0  0.4120896298819786  0.3656417021598042  0.9810706565988004  1.0000
  H   H36       1.0  0.5879103702031094  0.8656417025418817  0.5189293429136866  1.0000
  H   H37       1.0  0.6536584651966678  0.6493194696189653  0.9237772897736196  1.0000
  H   H38       1.0  0.3463415348884203  0.14931946923688771  0.5762227097388676  1.0000
  H   H39       1.0  0.34634153483971714  0.3506805300067456  0.07622270993484094  1.0000
  H   H40       1.0  0.6536584651479648  0.8506805303888232  0.4237772899695929  1.0000
  H   H41       1.0  0.8088145560716211  0.8124653166368341  0.728217541843597  1.0000
  H   H42       1.0  0.1911854440180886  0.3124653173932008  0.7717824583259587  1.0000
  H   H43       1.0  0.19118544396938547  0.18753468298887668  0.271782458521932  1.0000
  H   H44       1.0  0.808814556022918  0.6875346833709542  0.2282175420395703  1.0000
  H   H45       1.0  0.9351811663350861  0.9392168345172074  0.6534640990776539  1.0000
  H   H46       1.0  0.06481883375462348  0.43921683413512985  0.8465359010919019  1.0000
  H   H47       1.0  0.06481883370592037  0.06078316510850348  0.3465359012878751  1.0000
  H   H48       1.0  0.9351811662817614  0.560783165490581  0.15346409861655877  1.0000
  H   H49       1.0  0.041368871261318385  0.11074208108539055  0.7391829603982939  1.0000
  H   H50       1.0  0.9586311288237698  0.6107420814674681  0.7608170391141933  1.0000
  H   H51       1.0  0.9586311287750665  0.8892579185403203  0.26081703931016664  1.0000
  H   H52       1.0  0.04136887121261529  0.389257919296687  0.23918296059426725  1.0000
  H   H53       1.0  0.023384865411067192  0.15296401854666997  0.898770210001369  1.0000
  H   H54       1.0  0.9766151340010234  0.6529640189287476  0.6012297901309641  1.0000
  H   H55       1.0  0.9766151346299393  0.8470359810790409  0.10122979036415994  1.0000
  H   H56       1.0  0.023384866035361638  0.3470359806969634  0.39877020957749637  1.0000
  H   H57       1.0  0.897152211772374  0.02754283194144468  0.9717332447271451  1.0000
  H   H58       1.0  0.10284778831733557  0.5275428323235222  0.5282667554424108  1.0000
  H   H59       1.0  0.10284778826863247  0.9724571676842663  0.028266755638384045  1.0000
  H   H60       1.0  0.8971522117190494  0.4724571684406329  0.4717332442660498  1.0000
  H   H61       1.0  0.5513484198592492  0.3219630114691612  0.5673054104179439  1.0000
  H   H62       1.0  0.44865158022583895  0.8219630118512388  0.9326945890945433  1.0000
  H   H63       1.0  0.4486515801771358  0.6780369881565497  0.4326945892905166  1.0000
  H   H64       1.0  0.551348419810546  0.17803698777447213  0.06730541061391729  1.0000
  H   H65       1.0  0.6570879288825169  0.23141322870153289  0.5482620548597776  1.0000
  H   H66       1.0  0.3429120712025713  0.7314132290836104  0.9517379446527097  1.0000
  H   H67       1.0  0.3429120711538681  0.768586770924178  0.4517379448486829  1.0000
  H   H68       1.0  0.6570879288338137  0.2685867716805447  0.04826205505575096  1.0000
  H   H69       1.0  0.6210075038979738  0.3953752366297721  0.484887381897568  1.0000
  H   H70       1.0  0.3789924960943297  0.8953752370118496  0.015112618663934301  1.0000
  H   H71       1.0  0.3789924961430328  0.6046247629959388  0.515112618467961  1.0000
  H   H72       1.0  0.6210075039466768  0.10462476261386128  0.9848873817015946  1.0000
  H   H73       1.0  0.32033171846917813  0.9720025846286304  0.30784206836837513  1.0000
  H   H74       1.0  0.6796682815185038  0.472002584246553  0.19215793153605878  1.0000
  H   H75       1.0  0.6796682815672069  0.027997414997080305  0.6921579313400855  1.0000
  H   H76       1.0  0.32033171852250275  0.5279974153791579  0.8078420688294702  1.0000
  H   H77       1.0  0.3832426140505387  0.037687951278632344  0.21893583148976187  1.0000
  H   H78       1.0  0.6167573859371431  0.5376879516607099  0.281064168414672  1.0000
  H   H79       1.0  0.6167573859858463  0.9623120483470785  0.7810641682186986  1.0000
  H   H80       1.0  0.38324261410386334  0.46231204796500097  0.718935831950857  1.0000
  H   H81       1.0  0.4071001899494805  0.8527963278411669  0.26683124829210003  1.0000
  H   H82       1.0  0.5928998100382014  0.35279632859753357  0.2331687516123338  1.0000
  H   H83       1.0  0.5928998100869044  0.147203671784544  0.7331687514163605  1.0000
  H   H84       1.0  0.4071001900028052  0.6472036721666216  0.7668312487531952  1.0000
  H   H85       1.0  0.13135954651206533  0.6769903776740834  0.008165902989883643  1.0000
  H   H86       1.0  0.8686404534756165  0.17699037729200592  0.4918340969145502  1.0000
  H   H87       1.0  0.8686404535289411  0.3230096219516274  0.9918340973756454  1.0000
  H   H88       1.0  0.13135954656076843  0.8230096223337049  0.5081659027939104  1.0000
  H   H89       1.0  0.14912399738748172  0.4146325716901413  0.06781705602588749  1.0000
  H   H90       1.0  0.8508760026002001  0.9146325720722187  0.43218294387854633  1.0000
  H   H91       1.0  0.8508760019759058  0.5853674279355696  0.932182944302419  1.0000
  H   H92       1.0  0.14912399743618485  0.08536742869193627  0.5678170558299142  1.0000
  H   H93       1.0  0.9823043305846887  0.7625355448320881  0.9404883701077548  1.0000
  H   H94       1.0  0.017695669505020897  0.26253554445001065  0.5595116300618008  1.0000
  H   H95       1.0  0.017695669451696264  0.23746445593206691  0.05951162960070574  1.0000
  H   H96       1.0  0.9823043305359855  0.7374644551757003  0.4404883703037281  1.0000
  C   C1        1.0  0.7005977582369873  0.977847842253223  0.1502976190034799  1.0000
  C   C2        1.0  0.2994022417506945  0.4778478430095897  0.349702380900954  1.0000
  C   C3        1.0  0.2994022417993977  0.022152157372487873  0.8497023807049806  1.0000
  C   C4        1.0  0.7005977582903119  0.5221521577545654  0.650297619464575  1.0000
  C   C5        1.0  0.8177099866487172  0.1765865677103281  0.1692456972281114  1.0000
  C   C6        1.0  0.18229001333896466  0.6765865680924056  0.33075430267632244  1.0000
  C   C7        1.0  0.18229001338766773  0.8234134319153827  0.8307543024803491  1.0000
  C   C8        1.0  0.8177099860244229  0.32341343267174943  0.669245697651984  1.0000
  C   C9        1.0  0.8110696815888233  0.1597266333887272  0.26809858393729724  1.0000
  C   C10       1.0  0.18893031839885854  0.6597266337708048  0.23190141596713662  1.0000
  C   C11       1.0  0.18893031844756167  0.8402733662369837  0.7319014157711633  1.0000
  C   C12       1.0  0.811069681642148  0.34027336585490614  0.7680985843983924  1.0000
  C   C13       1.0  0.7152081487646622  0.12706224940071975  0.2888266473594213  1.0000
  C   C14       1.0  0.2847918512230196  0.6270622497827973  0.21117335254501257  1.0000
  C   C15       1.0  0.2847918512717227  0.8729377502249911  0.7111733523490392  1.0000
  C   C16       1.0  0.7152081488179869  0.3729377498429136  0.7888266478205165  1.0000
  C   C17       1.0  0.6793620962826455  0.18107189337149757  0.3658795567219777  1.0000
  C   C18       1.0  0.32063790370503625  0.6810718937535751  0.13412044318245614  1.0000
  C   C19       1.0  0.3206379037537393  0.8189281062542133  0.6341204429864828  1.0000
  C   C20       1.0  0.6793620956583512  0.31892810587213577  0.8658795571458504  1.0000
  C   C21       1.0  0.5902159926162434  0.14794019055231772  0.3838160736799349  1.0000
  C   C22       1.0  0.4097840073714386  0.6479401909343953  0.11618392622449901  1.0000
  C   C23       1.0  0.40978400742014165  0.8520598090733932  0.6161839260285258  1.0000
  C   C24       1.0  0.590215992669568  0.3520598098297599  0.8838160741410299  1.0000
  C   C25       1.0  0.5347864359634071  0.0614990176982742  0.32280666308760475  1.0000
  C   C26       1.0  0.46521356402427466  0.5614990180803517  0.1771933368168291  1.0000
  C   C27       1.0  0.46521356339535874  0.9385009819274366  0.6771933365836333  1.0000
  C   C28       1.0  0.5347864360167318  0.4385009826838034  0.8228066635486999  1.0000
  C   C29       1.0  0.5705480853549636  0.008368924350717712  0.24657084560745932  1.0000
  C   C30       1.0  0.42945191463271837  0.5083689247327953  0.25342915429697455  1.0000
  C   C31       1.0  0.429451914686043  0.9916310752749932  0.7534291547580696  1.0000
  C   C32       1.0  0.5705480854036666  0.4916310760313598  0.746570845411486  1.0000
  C   C33       1.0  0.6613607987345584  0.038005281221702686  0.2296607178962934  1.0000
  C   C34       1.0  0.3386392012531234  0.5380052816037802  0.2703392820081405  1.0000
  C   C35       1.0  0.33863920130182656  0.9619947184040081  0.7703392818121672  1.0000
  C   C36       1.0  0.661360798787883  0.46199471802193065  0.7296607183573885  1.0000
  C   C37       1.0  0.660635722273512  0.8562925594989683  0.103878897616216  1.0000
  C   C38       1.0  0.33936427771416994  0.35629256025533496  0.3961211022882179  1.0000
  C   C39       1.0  0.339364277762873  0.1437074401267426  0.8961211020922445  1.0000
  C   C40       1.0  0.6606357223268366  0.6437074405088201  0.6038788980773111  1.0000
  C   C41       1.0  0.6853259232438137  0.8005490729437514  0.020987876339926867  1.0000
  C   C42       1.0  0.31467407674386827  0.3005490737001181  0.47901212356450706  1.0000
  C   C43       1.0  0.3146740767925714  0.19945092668195946  0.9790121233685337  1.0000
  C   C44       1.0  0.6853259232925167  0.699450927064037  0.5209878761439535  1.0000
  C   C45       1.0  0.7679990152877849  0.8312662425770321  0.8943114305351386  1.0000
  C   C46       1.0  0.23200098480192466  0.3312662421949545  0.6056885696344173  1.0000
  C   C47       1.0  0.2320009847486  0.16873375704867882  0.10568856917332202  1.0000
  C   C48       1.0  0.7679990152390819  0.6687337574307564  0.3943114307311118  1.0000
  C   C49       1.0  0.8439765911370752  0.9143090592385666  0.8538388324253774  1.0000
  C   C50       1.0  0.15602340895263425  0.41430905885648894  0.6461611677441782  1.0000
  C   C51       1.0  0.15602340890393113  0.08569094152558857  0.14616116794015158  1.0000
  C   C52       1.0  0.8439765910883722  0.5856909407692219  0.35383883262135074  1.0000
  C   C53       1.0  0.8560372622691327  0.8888624696930255  0.7642342731725731  1.0000
  C   C54       1.0  0.14396273781595528  0.3888624693109479  0.7357657263399142  1.0000
  C   C55       1.0  0.14396273776725219  0.11113753107112964  0.23576572653588748  1.0000
  C   C56       1.0  0.8560372622204296  0.6111375303147629  0.2642342733685464  1.0000
  C   C57       1.0  0.9267573258693947  0.9587571720119529  0.7231769421512865  1.0000
  C   C58       1.0  0.07324267422031473  0.4587571716298753  0.7768230580182691  1.0000
  C   C59       1.0  0.07324267417161164  0.04124282875220227  0.2768230582142424  1.0000
  C   C60       1.0  0.9267573258160702  0.5412428279958356  0.22317694169019148  1.0000
  C   C61       1.0  0.9869094326760146  0.05429817469030706  0.7715023476345823  1.0000
  C   C62       1.0  0.013090567413695046  0.5542981750723845  0.7284976525349734  1.0000
  C   C63       1.0  0.01309056736037041  0.9457018249354038  0.22849765207387834  1.0000
  C   C64       1.0  0.9869094326273115  0.44570182455332624  0.27150234783055555  1.0000
  C   C65       1.0  0.9765406483802385  0.07855897325474497  0.8610468249686808  1.0000
  C   C66       1.0  0.02345935170947116  0.5785589724983783  0.6389531752008749  1.0000
  C   C67       1.0  0.02345935165614652  0.9214410275094101  0.13895317473977978  1.0000
  C   C68       1.0  0.9765406483315354  0.4214410271273326  0.3610468251646541  1.0000
  C   C69       1.0  0.9051313618436755  0.009671469617684128  0.9018429252814468  1.0000
  C   C70       1.0  0.09486863824603414  0.5096714699997617  0.5981570748881088  1.0000
  C   C71       1.0  0.09486863819733105  0.9903285300080268  0.0981570750840821  1.0000
  C   C72       1.0  0.9051313617903508  0.4903285296259492  0.4018429248203518  1.0000
  C   C73       1.0  0.5982129692432706  0.2916941725558365  0.5173322789321024  1.0000
  C   C74       1.0  0.401787030846439  0.7916941729379141  0.9826677212374534  1.0000
  C   C75       1.0  0.4017870307977359  0.7083058270698743  0.4826677214334266  1.0000
  C   C76       1.0  0.598212969189946  0.2083058266877968  0.01733227847100721  1.0000
  C   C77       1.0  0.3867925519047936  0.9705040596037904  0.28004957198070823  1.0000
  C   C78       1.0  0.6132074480828882  0.47050405922171284  0.2199504279237256  1.0000
  C   C79       1.0  0.6132074481315913  0.0294959411603647  0.7199504277277522  1.0000
  C   C80       1.0  0.38679255195349677  0.529495940403998  0.780049571784735  1.0000
  C   C81       1.0  0.07376530439886787  0.5992770077742366  0.004613334803245157  1.0000
  C   C82       1.0  0.9262346955888141  0.09927700853060331  0.49538666510118873  1.0000
  C   C83       1.0  0.9262346956421387  0.40072299185147425  0.9953866655622837  1.0000
  C   C84       1.0  0.07376530444757098  0.9007229922335518  0.5046133346072719  1.0000
  C   C85       1.0  0.08386630431129076  0.45177643201289397  0.038072893409306856  1.0000
  C   C86       1.0  0.916133695676391  0.9517764323949715  0.46192710649512697  1.0000
  C   C87       1.0  0.9161336957297157  0.548223567612817  0.9619271069562221  1.0000
  C   C88       1.0  0.08386630435999387  0.04822356723073935  0.5380728932133335  1.0000
  C   C89       1.0  0.9901900541418331  0.6474635880905739  0.9666208106913916  1.0000
  C   C90       1.0  0.009809945270257319  0.14746358770849644  0.5333791894409416  1.0000
  C   C91       1.0  0.009809945221554215  0.3525364115351369  0.033379189636914906  1.0000
  C   C92       1.0  0.9901900547661276  0.8525364119172144  0.466620810267519  1.0000
  N   N1        1.0  0.776290672950247  0.04614743886738997  0.1242304406522089  1.0000
  N   N2        1.0  0.22370932703743493  0.5461474381110233  0.37576955925222494  1.0000
  N   N3        1.0  0.22370932709075958  0.9538525618967653  0.87576955971332  1.0000
  N   N4        1.0  0.7762906729989499  0.45385256151468756  0.6242304404562355  1.0000
  N   N5        1.0  0.6407535834307065  0.6776589962129896  0.9871679277759051  1.0000
  N   N6        1.0  0.3592464166590031  0.17765899583091208  0.5128320723936506  1.0000
  N   N7        1.0  0.3592464166103  0.32234100455116543  0.012832072589623883  1.0000
  N   N8        1.0  0.6407535833820034  0.8223410037947988  0.48716792797187847  1.0000
  N   N9        1.0  0.7517930214218929  0.8719929417019467  0.9779440377270406  1.0000
  N   N10       1.0  0.2482069786631953  0.37199294131986915  0.5220559617854467  1.0000
  N   N11       1.0  0.2482069786144922  0.12800705792376413  0.022055961981419948  1.0000
  N   N12       1.0  0.7517930213731897  0.6280070583058417  0.4779440379230139  1.0000
  O   O1        1.0  0.7265341201893493  0.7314580860629347  0.8475017498705814  1.0000
  O   O2        1.0  0.27346587990036025  0.23145808568085718  0.6524982502989742  1.0000
  O   O3        1.0  0.2734658798516572  0.2685419135627762  0.15249825049494758  1.0000
  O   O4        1.0  0.7265341201360246  0.7685419139448537  0.3475017494094863  1.0000
  O   O5        1.0  0.5484657412407499  0.19462307730703673  0.45621627604967524  1.0000
  O   O6        1.0  0.451534258746932  0.6946230776891144  0.0437837238547587  1.0000
  O   O7        1.0  0.4515342587956351  0.8053769223186741  0.5437837236587854  1.0000
  O   O8        1.0  0.5484657412940745  0.30537692307504083  0.9562162765107702  1.0000
  O   O9        1.0  0.4478077592362812  0.03925616388977217  0.34526349893567654  1.0000
  O   O10       1.0  0.5521922407514007  0.5392561642718496  0.15473650096875732  1.0000
  O   O11       1.0  0.5521922408047254  0.9607438357359388  0.6547365014298525  1.0000
  O   O12       1.0  0.44780775928498423  0.4607438353538611  0.8452634987397032  1.0000
