data_image0
_chemical_formula_structural       H56C64N4O12F28
_chemical_formula_sum              "H56 C64 N4 O12 F28"
_cell_length_a       8.529604877608023
_cell_length_b       12.21719383222388
_cell_length_c       16.94075881514728
_cell_angle_alpha    79.76997969358294
_cell_angle_beta     85.15344687126536
_cell_angle_gamma    70.57514618731976

_space_group_name_H-M_alt    "P 1"
_space_group_IT_number       1

loop_
  _space_group_symop_operation_xyz
  'x, y, z'

loop_
  _atom_site_type_symbol
  _atom_site_label
  _atom_site_symmetry_multiplicity
  _atom_site_fract_x
  _atom_site_fract_y
  _atom_site_fract_z
  _atom_site_occupancy
  H   H1        1.0  0.06869902446112773  0.5550262961764947  0.2981497060690503  1.0000
  H   H2        1.0  0.9313009752756474  0.44497370443796114  0.7018502935345987  1.0000
  H   H3        1.0  0.07553941472396004  0.5656223150772361  0.19362042257799958  1.0000
  H   H4        1.0  0.9244605850128148  0.43437768553721967  0.8063795770256493  1.0000
  H   H5        1.0  0.9640008966979735  0.7911056759623043  0.2577092571702583  1.0000
  H   H6        1.0  0.03599910303880123  0.20889432465215152  0.7422907424333907  1.0000
  H   H7        1.0  0.9607609337149433  0.8060248192518278  0.15319047621299361  1.0000
  H   H8        1.0  0.03923906642176664  0.1939751804835172  0.8468095234883739  1.0000
  H   H9        1.0  0.40477772647608173  0.6614529361601723  0.32007501390182386  1.0000
  H   H10       1.0  0.5952222736577871  0.33854706357835446  0.6799249863895451  1.0000
  H   H11       1.0  0.3657984096347659  0.7894795528007549  0.36569350824750446  1.0000
  H   H12       1.0  0.634201590499103  0.21052044693777203  0.6343064920438646  1.0000
  H   H13       1.0  0.20987661447565184  0.9097415877381176  0.24011671150172773  1.0000
  H   H14       1.0  0.790123385658217  0.09025841200040927  0.7598832887896414  1.0000
  H   H15       1.0  0.4306756285126849  0.843920018032782  0.2292275909356655  1.0000
  H   H16       1.0  0.569324371621184  0.15607998170574464  0.7707724093557036  1.0000
  H   H17       1.0  0.3797270661601235  0.8614758913110382  0.08496901829242724  1.0000
  H   H18       1.0  0.6202729339765863  0.1385241084243069  0.9150309814089405  1.0000
  H   H19       1.0  0.16153120586622816  0.917979557055288  0.10637734240910998  1.0000
  H   H20       1.0  0.8384687938705466  0.082020443559168  0.8936226571945389  1.0000
  H   H21       1.0  0.2368690796247796  0.8198816147236504  0.9833485341317549  1.0000
  H   H22       1.0  0.7631309201091543  0.18011838589398715  0.016651466061895416  1.0000
  H   H23       1.0  0.3389330080514436  0.6837138025214788  0.04536271079133771  1.0000
  H   H24       1.0  0.6610669920824254  0.3162861972170481  0.9546372895000312  1.0000
  H   H25       1.0  0.14023386442832303  0.5978566436728724  0.009863666604915194  1.0000
  H   H26       1.0  0.8597661353056109  0.4021433569447652  0.9901363335887351  1.0000
  H   H27       1.0  0.04221193071273396  0.7326477116762138  0.9458322312181436  1.0000
  H   H28       1.0  0.9577880694211349  0.26735228806231315  0.05416776907322538  1.0000
  H   H29       1.0  0.7816721459226227  0.7602745828223387  0.029173750247190593  1.0000
  H   H30       1.0  0.218327853811311  0.23972541779529896  0.9708262499464597  1.0000
  H   H31       1.0  0.8418709767279632  0.630061507662371  0.9845481783068697  1.0000
  H   H32       1.0  0.1581290234087468  0.3699384920729741  0.015451821394497899  1.0000
  H   H33       1.0  0.6651081272605359  0.5643140842420958  0.09091786147671443  1.0000
  H   H34       1.0  0.33489187247623886  0.43568591637236004  0.9090821381269345  1.0000
  H   H35       1.0  0.6304391726918986  0.693956486141672  0.13395006041279725  1.0000
  H   H36       1.0  0.3695608274419703  0.3060435135968547  0.8660499398785717  1.0000
  H   H37       1.0  0.5975944258199681  0.5159428826268495  0.2281099289167807  1.0000
  H   H38       1.0  0.40240557431674184  0.48405711710849575  0.7718900707845869  1.0000
  H   H39       1.0  0.8176924786027038  0.4464500363263728  0.2180563649951926  1.0000
  H   H40       1.0  0.1823075215340062  0.5535499634089723  0.781943634706175  1.0000
  H   H41       1.0  0.8529277977440399  0.4439679972877204  0.35490172225634986  1.0000
  H   H42       1.0  0.14707220199273482  0.5560320033267355  0.645098277347299  1.0000
  H   H43       1.0  0.634277492162743  0.5110695402434956  0.37019536768653133  1.0000
  H   H44       1.0  0.36572250797112593  0.48893045949503133  0.6298046326048377  1.0000
  H   H45       1.0  0.6932086861167475  0.6887504570185468  0.4030328440827578  1.0000
  H   H46       1.0  0.30679131401996235  0.3112495427167984  0.5969671556186099  1.0000
  H   H47       1.0  0.7695468774361176  0.556684682787772  0.47265518635218784  1.0000
  H   H48       1.0  0.2304531226977512  0.4433153169507548  0.527344813939181  1.0000
  H   H49       1.0  0.9903527769160959  0.6240675905115871  0.5121139134489843  1.0000
  H   H50       1.0  0.009647222817837824  0.3759324101060506  0.4878860867446661  1.0000
  H   H51       1.0  0.8960261826405359  0.7574576696170208  0.44658677497191984  1.0000
  H   H52       1.0  0.10397381709623887  0.24254233099743533  0.553413224631729  1.0000
  H   H53       1.0  0.19326390896345302  0.7242343587876077  0.47062132342230706  1.0000
  H   H54       1.0  0.806736090773322  0.27576564182684826  0.5293786761813418  1.0000
  H   H55       1.0  0.2529655520895489  0.5920540583216183  0.4278675372920315  1.0000
  H   H56       1.0  0.7470344480471611  0.407945941413727  0.5721324624093361  1.0000
  C   C1        1.0  0.3606327587662437  0.38654071715362265  0.3227764301861361  1.0000
  C   C2        1.0  0.6393672413704662  0.6134592825817224  0.6772235695152314  1.0000
  C   C3        1.0  0.2843254418512391  0.4480174556391632  0.2507530109286501  1.0000
  C   C4        1.0  0.7156745578826946  0.5519825449784745  0.7492469892650002  1.0000
  C   C5        1.0  0.38051198183977863  0.41657638499774885  0.18052523566237458  1.0000
  C   C6        1.0  0.6194880178941553  0.5834236156198888  0.8194747645312758  1.0000
  C   C7        1.0  0.6098790826760361  0.26892587480483193  0.25568509570711445  1.0000
  C   C8        1.0  0.39012091745783267  0.731074124933695  0.7443149045842545  1.0000
  C   C9        1.0  0.5341625639678569  0.3318467823923902  0.18273510516918778  1.0000
  C   C10       1.0  0.46583743616601203  0.6681532173461366  0.8172648951221811  1.0000
  C   C11       1.0  0.7647558788832095  0.1779563072918781  0.2611145819241587  1.0000
  C   C12       1.0  0.23524412125350044  0.822043692443467  0.7388854177772088  1.0000
  C   C13       1.0  0.8289223811339756  0.11708461298300077  0.3340990029086996  1.0000
  C   C14       1.0  0.17107761899989313  0.8829153867555262  0.6659009973826694  1.0000
  C   C15       1.0  0.7421265150223715  0.14797638014924125  0.4055562582540732  1.0000
  C   C16       1.0  0.2578734851143386  0.8520236195861037  0.5944437414472944  1.0000
  C   C17       1.0  0.5180319371549579  0.2995172834693928  0.3288074345156229  1.0000
  C   C18       1.0  0.4819680629789109  0.700482716269134  0.6711925657757462  1.0000
  C   C19       1.0  0.5915760388377842  0.23718755692858182  0.4027421375920316  1.0000
  C   C20       1.0  0.40842396089614963  0.7628124436890558  0.5972578626016187  1.0000
  C   C21       1.0  0.6597125718774083  0.9336611813373298  0.27848382327564347  1.0000
  C   C22       1.0  0.34028742785936655  0.0663388192771262  0.7215161763280054  1.0000
  C   C23       1.0  0.749410776044137  0.908817131797554  0.2072752821775082  1.0000
  C   C24       1.0  0.25058922408973194  0.09118286794097287  0.7927247181138608  1.0000
  C   C25       1.0  0.6656973035395914  0.9739344963056306  0.13604681726103773  1.0000
  C   C26       1.0  0.3343026965971184  0.02606550342971459  0.8639531824403298  1.0000
  C   C27       1.0  0.4212281509571551  0.08229899350786883  0.20931943789062907  1.0000
  C   C28       1.0  0.5787718491795548  0.9177010062274764  0.7906805618107384  1.0000
  C   C29       1.0  0.5102618918673618  0.05665483919580378  0.13680504577070102  1.0000
  C   C30       1.0  0.48973810786941313  0.9433451614186522  0.8631949538329479  1.0000
  C   C31       1.0  0.264179318702414  0.1692964330261553  0.21407823792822572  1.0000
  C   C32       1.0  0.7358206814342958  0.8307035667091899  0.7859217617731419  1.0000
  C   C33       1.0  0.1860738353435694  0.19168074516401468  0.28670425944870565  1.0000
  C   C34       1.0  0.8139261647931404  0.8083192545713305  0.713295740252662  1.0000
  C   C35       1.0  0.2595483622513686  0.12476678852604016  0.35857882304927463  1.0000
  C   C36       1.0  0.7404516374854062  0.8752332120884158  0.6414211765543743  1.0000
  C   C37       1.0  0.41210704767565726  0.038807998363733845  0.356684571924986  1.0000
  C   C38       1.0  0.5878929520582766  0.9611920022539037  0.6433154282686643  1.0000
  C   C39       1.0  0.500166336119883  0.016133265108311656  0.28313630883677493  1.0000
  C   C40       1.0  0.4998336640139858  0.9838667346302152  0.716863691454594  1.0000
  C   C41       1.0  0.3178305408142093  0.7511056784781764  0.3224477958474553  1.0000
  C   C42       1.0  0.6821694593196596  0.24889432126035027  0.6775522044439136  1.0000
  C   C43       1.0  0.31191064446428163  0.8252347961150572  0.24093460035282946  1.0000
  C   C44       1.0  0.6880893556695872  0.17476520362346973  0.7590653999385397  1.0000
  C   C45       1.0  0.2675943040676778  0.8360791248130528  0.10427922354188883  1.0000
  C   C46       1.0  0.7324056960690322  0.16392087492229224  0.895720776159479  1.0000
  C   C47       1.0  0.2379430824308332  0.7686460128037611  0.04397569611060562  1.0000
  C   C48       1.0  0.7620569173031005  0.23135398781387653  0.9560243040830446  1.0000
  C   C49       1.0  0.04435975908899185  0.6850892299204682  0.00775449987764249  1.0000
  C   C50       1.0  0.9556402410477182  0.3149107698148769  0.9922454998237251  1.0000
  C   C51       1.0  0.8757177029566758  0.6725903936305859  0.02984044682535401  1.0000
  C   C52       1.0  0.12428229718003395  0.327409606104759  0.9701595528760137  1.0000
  C   C53       1.0  0.7149321346644475  0.6031542871975005  0.1332724671360144  1.0000
  C   C54       1.0  0.2850678650694862  0.39684571342013714  0.866727533057636  1.0000
  C   C55       1.0  0.7179646110833786  0.5321780139624731  0.21574618297496126  1.0000
  C   C56       1.0  0.28203538905333136  0.467821985772872  0.7842538167264064  1.0000
  C   C57       1.0  0.7523582393122437  0.5294473120070423  0.3525885588489073  1.0000
  C   C58       1.0  0.24764176042453134  0.4705526886074135  0.6474114407547417  1.0000
  C   C59       1.0  0.7840616639655371  0.5992875442395547  0.4106796811341976  1.0000
  C   C60       1.0  0.21593833617117275  0.4007124554957905  0.58932031856717  1.0000
  C   C61       1.0  0.9895849480577438  0.6695810997236851  0.44957246633224035  1.0000
  C   C62       1.0  0.010415052078965962  0.3304189000116601  0.5504275333691272  1.0000
  C   C63       1.0  0.15899450252416322  0.6801167850761556  0.42642064650025924  1.0000
  C   C64       1.0  0.8410054972126118  0.31988321553830024  0.5735793531033897  1.0000
  N   N1        1.0  0.13104359256664608  0.528252379167653  0.2471011373409868  1.0000
  N   N2        1.0  0.8689564075700638  0.4717476205676921  0.7528988623603808  1.0000
  N   N3        1.0  0.905511022585001  0.8329232364767033  0.20551892087900225  1.0000
  N   N4        1.0  0.0944889771517739  0.16707676413775258  0.7944810787246467  1.0000
  O   O1        1.0  0.15607836302316383  0.7465181712107323  0.3479486136314495  1.0000
  O   O2        1.0  0.84392163671077  0.25348182940690533  0.6520513865622009  1.0000
  O   O3        1.0  0.2887262114767233  0.7640645581963565  0.1810577511466292  1.0000
  O   O4        1.0  0.7112737886571455  0.23593544154217036  0.8189422491447398  1.0000
  O   O5        1.0  0.08211643803080429  0.7488591134295255  0.062438769040476384  1.0000
  O   O6        1.0  0.9178835617031295  0.25114088718811217  0.9375612311531739  1.0000
  O   O7        1.0  0.8784507174900007  0.6038257543568575  0.10768341062568078  1.0000
  O   O8        1.0  0.12154928224393317  0.39617424626078024  0.8923165895679696  1.0000
  O   O9        1.0  0.7432500717796896  0.5952877918054278  0.27391479171881683  1.0000
  O   O10       1.0  0.2567499283570202  0.4047122079299173  0.7260852079825508  1.0000
  O   O11       1.0  0.9490197603938534  0.6045845299458267  0.3965020823668427  1.0000
  O   O12       1.0  0.05098023974285671  0.3954154697895183  0.6034979173345248  1.0000
  F   F1        1.0  0.26794777233370526  0.4105965668817804  0.39116843922588385  1.0000
  F   F2        1.0  0.7320522278030046  0.5894034328535646  0.6088315604754838  1.0000
  F   F3        1.0  0.31532370844464114  0.4725134681762483  0.10823426895719088  1.0000
  F   F4        1.0  0.6846762916892277  0.5274865315622785  0.891765731334178  1.0000
  F   F5        1.0  0.613047601188342  0.30983059809858116  0.11147854710860657  1.0000
  F   F6        1.0  0.38695239894836797  0.6901694016367639  0.888521452592761  1.0000
  F   F7        1.0  0.8554704267111517  0.14741843784489528  0.1940161149258968  1.0000
  F   F8        1.0  0.14452957342271724  0.8525815618936315  0.8059838853654723  1.0000
  F   F9        1.0  0.9757055335659615  0.02919333715426897  0.33826246300368046  1.0000
  F   F10       1.0  0.024294466570748567  0.9708066625810761  0.6617375366976872  1.0000
  F   F11       1.0  0.8093562437209838  0.09026105709093317  0.4763727314830256  1.0000
  F   F12       1.0  0.19064375601295003  0.9097389435267044  0.5236272687106247  1.0000
  F   F13       1.0  0.5150583733050704  0.2639943208274554  0.47367120919260797  1.0000
  F   F14       1.0  0.48494162682879877  0.7360056789110714  0.5263287910987611  1.0000
  F   F15       1.0  0.7397987339205199  0.8749939758857563  0.34749936266211867  1.0000
  F   F16       1.0  0.2602012658134141  0.12500602473188127  0.6525006375315316  1.0000
  F   F17       1.0  0.7469830757404315  0.9560740096441361  0.06465943564734657  1.0000
  F   F18       1.0  0.2530169243934373  0.04392599009439066  0.9353405646440226  1.0000
  F   F19       1.0  0.44487124052731375  0.11552786732013005  0.06501294261543446  1.0000
  F   F20       1.0  0.5551287592066203  0.8844721332975075  0.9349870575782159  1.0000
  F   F21       1.0  0.18697799677651905  0.23582312022719537  0.14678056553653143  1.0000
  F   F22       1.0  0.813022003360191  0.7641768795081495  0.8532194341648363  1.0000
  F   F23       1.0  0.03788238711720136  0.2776074935115726  0.29035182855930025  1.0000
  F   F24       1.0  0.9621176126195735  0.7223925071028833  0.7096481710443486  1.0000
  F   F25       1.0  0.17835753727213347  0.14683392925981464  0.4287384183465557  1.0000
  F   F26       1.0  0.8216424624618004  0.8531660713578231  0.5712615818470946  1.0000
  F   F27       1.0  0.4768489243958958  0.9762406778579177  0.4272842941588751  1.0000
  F   F28       1.0  0.523151075340879  0.023759322756538158  0.5727157054447738  1.0000
