data_image0
_chemical_formula_structural       H20C20N4O4I8
_chemical_formula_sum              "H20 C20 N4 O4 I8"
_cell_length_a       9.073307011617054
_cell_length_b       9.285221354494832
_cell_length_c       10.65572501971327
_cell_angle_alpha    92.08808094934844
_cell_angle_beta     89.68936495805748
_cell_angle_gamma    106.77619958825417

_space_group_name_H-M_alt    "P 1"
_space_group_IT_number       1

loop_
  _space_group_symop_operation_xyz
  'x, y, z'

loop_
  _atom_site_type_symbol
  _atom_site_label
  _atom_site_symmetry_multiplicity
  _atom_site_fract_x
  _atom_site_fract_y
  _atom_site_fract_z
  _atom_site_occupancy
  H   H1        1.0  0.592915502703235  0.33827578597436503  0.2517815655359249  1.0000
  H   H2        1.0  0.4070844965717246  0.6617242144597902  0.7482184341102077  1.0000
  H   H3        1.0  0.4405966206383667  0.5251468325556177  0.27792550694126805  1.0000
  H   H4        1.0  0.5594033797371157  0.47485316787307386  0.7220744927011834  1.0000
  H   H5        1.0  0.5486704650872045  0.7588683856890898  0.4155922276521598  1.0000
  H   H6        1.0  0.4513295352882779  0.24113161473960185  0.5844077719902917  1.0000
  H   H7        1.0  0.8037076626568623  0.7925484516949803  0.5222736747771624  1.0000
  H   H8        1.0  0.19629233771862006  0.20745154873371124  0.47772632486528904  1.0000
  H   H9        1.0  0.9409393292496763  0.5944828115095312  0.4862778384717787  1.0000
  H   H10       1.0  0.059060671125805965  0.4055171889191603  0.5137221611706727  1.0000
  H   H11       1.0  0.6008001555644906  0.0426005807475387  0.06316607292815946  1.0000
  H   H12       1.0  0.39919984482104887  0.9573994197208381  0.9368339276533837  1.0000
  H   H13       1.0  0.8039149369537952  0.15474197856095995  0.2261684834697651  1.0000
  H   H14       1.0  0.1960850634216872  0.8452580218677316  0.7738315161726864  1.0000
  H   H15       1.0  0.0038999437903026856  0.021569680370977354  0.26891795494774967  1.0000
  H   H16       1.0  0.9961000565851796  0.9784303200577141  0.7310820446947017  1.0000
  H   H17       1.0  0.9919938492082013  0.7830015882278986  0.1438826939062271  1.0000
  H   H18       1.0  0.00800615082982251  0.21699841107590456  0.8561173057351472  1.0000
  H   H19       1.0  0.7809121474510182  0.6878682549260909  0.9818951825647342  1.0000
  H   H20       1.0  0.21908785292446412  0.3121317455026006  0.018104817077717283  1.0000
  C   C1        1.0  0.6315804231373304  0.4411494106029457  0.3094050773379278  1.0000
  C   C2        1.0  0.36841957723815183  0.558850589825746  0.6905949223045237  1.0000
  C   C3        1.0  0.5506335588548317  0.545946505900501  0.32602721119163497  1.0000
  C   C4        1.0  0.44936644043018487  0.4540534945733395  0.6739727893935894  1.0000
  C   C5        1.0  0.6110952796967299  0.6751502096339905  0.4019915553820569  1.0000
  C   C6        1.0  0.3889047203412939  0.32484978966981254  0.5980084442593174  1.0000
  C   C7        1.0  0.7527218018016641  0.6944107509381353  0.46108984791280366  1.0000
  C   C8        1.0  0.24727819858387518  0.30558924953024125  0.5389101526687394  1.0000
  C   C9        1.0  0.8304320097281812  0.5871264784094119  0.4435199153484404  1.0000
  C   C10       1.0  0.1695679906473011  0.4128735220192797  0.5564800842940111  1.0000
  C   C11       1.0  0.690785569743415  0.991852498647229  0.08580203304879505  1.0000
  C   C12       1.0  0.3092144295315446  0.008147501786926421  0.9141979665973375  1.0000
  C   C13       1.0  0.8039184869369084  0.05076501007261398  0.1754265025631121  1.0000
  C   C14       1.0  0.19608151343857402  0.9492349903560776  0.8245734970793394  1.0000
  C   C15       1.0  0.9141126899299451  0.9767972856967895  0.19868913731991866  1.0000
  C   C16       1.0  0.08588731045559421  0.02320271477158721  0.8013108632616245  1.0000
  C   C17       1.0  0.9084077845138351  0.8447690377523082  0.1294812861015378  1.0000
  C   C18       1.0  0.09159221443372302  0.1552309615966438  0.8705187144826095  1.0000
  C   C19       1.0  0.7941195268512606  0.7893685635412345  0.04001974961657015  1.0000
  C   C20       1.0  0.20588047318676328  0.21063143576256874  0.9599802500248041  1.0000
  N   N1        1.0  0.7695273325992333  0.4629170807576024  0.36794192442334855  1.0000
  N   N2        1.0  0.23047266777624906  0.5370829196710892  0.6320580752191028  1.0000
  N   N3        1.0  0.6874663744812386  0.8630012540696682  0.01980511114140789  1.0000
  N   N4        1.0  0.31253362479372093  0.13699874636448717  0.9801948885047247  1.0000
  O   O1        1.0  0.8466721202372728  0.36167216875699426  0.35066756648490577  1.0000
  O   O2        1.0  0.15332788014826654  0.6383278317113823  0.6493324340966373  1.0000
  O   O3        1.0  0.5778501265878885  0.8075135582435565  0.9332402262735646  1.0000
  O   O4        1.0  0.422149873787594  0.192486442185135  0.0667597733688869  1.0000
  I   I1        1.0  0.32682832803247214  0.6397311186060128  0.05123638169840143  1.0000
  I   I2        1.0  0.6731716712424874  0.3602688818281426  0.9487636179477312  1.0000
  I   I3        1.0  0.08262190489067157  0.485412031856807  0.1965392991352691  1.0000
  I   I4        1.0  0.9173780954848108  0.5145879685718846  0.8034607005071824  1.0000
  I   I5        1.0  0.345212787425543  0.03830695317577134  0.27277608707778717  1.0000
  I   I6        1.0  0.6547872129499394  0.9616930472529203  0.7272239125646642  1.0000
  I   I7        1.0  0.25230906434597383  0.855586353027369  0.47403901813097216  1.0000
  I   I8        1.0  0.74769093569205  0.14441364627643413  0.5259609815104022  1.0000
