data_image0
_chemical_formula_structural       H36C52N4O4I4
_chemical_formula_sum              "H36 C52 N4 O4 I4"
_cell_length_a       7.006129068249557
_cell_length_b       11.022318127091095
_cell_length_c       14.35424055216731
_cell_angle_alpha    90.0
_cell_angle_beta     101.53166911299512
_cell_angle_gamma    90.0

_space_group_name_H-M_alt    "P 1"
_space_group_IT_number       1

loop_
  _space_group_symop_operation_xyz
  'x, y, z'

loop_
  _atom_site_type_symbol
  _atom_site_label
  _atom_site_symmetry_multiplicity
  _atom_site_fract_x
  _atom_site_fract_y
  _atom_site_fract_z
  _atom_site_occupancy
  H   H1        1.0  0.4414601303934091  0.28545053805576814  0.7180227247468772  1.0000
  H   H2        1.0  0.5585398696010976  0.7854505377340983  0.7819772751945399  1.0000
  H   H3        1.0  0.5585398706817926  0.7145494622081423  0.2819772756969418  1.0000
  H   H4        1.0  0.441460129756867  0.21454946252981213  0.21802272453745727  1.0000
  H   H5        1.0  0.4623520114300235  0.3983539414642874  0.8708508442406128  1.0000
  H   H6        1.0  0.5376479885644831  0.8983539420498677  0.6291491557008043  1.0000
  H   H7        1.0  0.5376479879279411  0.6016460587996231  0.1291491554913844  1.0000
  H   H8        1.0  0.46235201222113476  0.10164605821404275  0.3708508440320047  1.0000
  H   H9        1.0  0.3654167927861927  0.6159565557550968  0.8694727207894869  1.0000
  H   H10       1.0  0.6345832072083138  0.11595655516951647  0.6305272791519301  1.0000
  H   H11       1.0  0.634583206571772  0.38404344450881367  0.1305272789425103  1.0000
  H   H12       1.0  0.36541679214965067  0.884043445094394  0.369472720580067  1.0000
  H   H13       1.0  0.24265558301556064  0.7202326197143694  0.7156296053453177  1.0000
  H   H14       1.0  0.757344416978946  0.2202326200360392  0.7843703945960991  1.0000
  H   H15       1.0  0.7573444180596408  0.279767379642291  0.28437039509850115  1.0000
  H   H16       1.0  0.24265558237901866  0.7797673802278713  0.21562960513589793  1.0000
  H   H17       1.0  0.1711960209888275  0.7178044617088207  0.5393430166253567  1.0000
  H   H18       1.0  0.828803979005679  0.21780446203049056  0.9606569833160603  1.0000
  H   H19       1.0  0.8288039797967903  0.2821955385550898  0.4606569831074523  1.0000
  H   H20       1.0  0.17119602035228548  0.7821955382334199  0.03934301641593682  1.0000
  H   H21       1.0  0.09093499250991842  0.7053818471171172  0.363751352643602  1.0000
  H   H22       1.0  0.9090650076391573  0.20538184653153685  0.13624864687978716  1.0000
  H   H23       1.0  0.9090650082756995  0.2946181531467933  0.636248647089207  1.0000
  H   H24       1.0  0.09093499171880712  0.7946181528251234  0.8637513528522099  1.0000
  H   H25       1.0  0.0738041716776559  0.5841938905912675  0.2148252931327909  1.0000
  H   H26       1.0  0.9261958284714199  0.08419389000568722  0.28517470639059816  1.0000
  H   H27       1.0  0.9261958276803087  0.4158061096726429  0.7851747065992063  1.0000
  H   H28       1.0  0.07380417231419789  0.9158061093509731  0.7148252933422107  1.0000
  H   H29       1.0  0.17930123184641336  0.368969978284713  0.22490514134186287  1.0000
  H   H30       1.0  0.8206987685922462  0.8689699788702933  0.2750948588925362  1.0000
  H   H31       1.0  0.820698769228788  0.6310300210719473  0.775094859101956  1.0000
  H   H32       1.0  0.1793012307657184  0.1310300213936171  0.724905140839461  1.0000
  H   H33       1.0  0.3020131969548644  0.2719545149611001  0.38220882209638857  1.0000
  H   H34       1.0  0.6979868034837952  0.7719545155466805  0.11779117813801047  1.0000
  H   H35       1.0  0.6979868041203372  0.7280454843955603  0.6177911783474304  1.0000
  H   H36       1.0  0.3020131958741694  0.22804548471723005  0.8822088215939867  1.0000
  C   C1        1.0  0.3363574609999815  0.4400189156289552  0.6317305157070264  1.0000
  C   C2        1.0  0.6636425389945251  0.9400189153072854  0.8682694842343905  1.0000
  C   C3        1.0  0.6636425386475668  0.5599810846349552  0.36826948473598076  1.0000
  C   C4        1.0  0.33635746179109277  0.059981084956625116  0.13173051549841833  1.0000
  C   C5        1.0  0.3995913549409448  0.38020116473502374  0.7193785863516758  1.0000
  C   C6        1.0  0.6004086450535617  0.8802011644133539  0.780621413589741  1.0000
  C   C7        1.0  0.600408645844673  0.6197988355288867  0.28062141338113306  1.0000
  C   C8        1.0  0.3995913545939865  0.11979883585055655  0.21937858685326603  1.0000
  C   C9        1.0  0.40950269298843506  0.44339627414562727  0.8030041482394896  1.0000
  C   C10       1.0  0.5904973070060715  0.9433962738239575  0.6969958517019273  1.0000
  C   C11       1.0  0.5904973066591133  0.5566037261182832  0.19699585220351745  1.0000
  C   C12       1.0  0.40950269377954635  0.05660372553270288  0.3030041480308816  1.0000
  C   C13       1.0  0.3539706472566679  0.5671758307024894  0.8026295345158743  1.0000
  C   C14       1.0  0.6460293527378386  0.06717583102415936  0.6973704654255426  1.0000
  C   C15       1.0  0.6460293521012967  0.43282416956142095  0.19737046521612278  1.0000
  C   C16       1.0  0.35397064804777917  0.9328241692397511  0.30262953430726636  1.0000
  C   C17       1.0  0.28810751098471943  0.6255286411171298  0.7177618882243776  1.0000
  C   C18       1.0  0.7118924890097872  0.12552864143879966  0.7822381117170394  1.0000
  C   C19       1.0  0.7118924883732451  0.37447135914678065  0.28223811150761946  1.0000
  C   C20       1.0  0.28810751177583077  0.8744713588251108  0.21776188801576965  1.0000
  C   C21       1.0  0.27778798679056665  0.5648378524566374  0.6292896134329893  1.0000
  C   C22       1.0  0.7222120132039399  0.06483785277830728  0.8707103865084276  1.0000
  C   C23       1.0  0.7222120139950513  0.435162147807273  0.37071038629981967  1.0000
  C   C24       1.0  0.27778798644360836  0.9351621474856031  0.12928961393457944  1.0000
  C   C25       1.0  0.21484042735578462  0.6226406651366724  0.5418468406383486  1.0000
  C   C26       1.0  0.7851595726387219  0.12264066455109203  0.9581531593030684  1.0000
  C   C27       1.0  0.78515957200218  0.3773593351272381  0.4581531590936485  1.0000
  C   C28       1.0  0.21484042700882633  0.8773593348055683  0.04184684113993879  1.0000
  C   C29       1.0  0.20483446577401226  0.5577972073668118  0.45724247909207194  1.0000
  C   C30       1.0  0.7951655346646472  0.05779720768848164  0.04275752114232717  1.0000
  C   C31       1.0  0.7951655335839524  0.4422027928970987  0.5427575206399252  1.0000
  C   C32       1.0  0.20483446641055425  0.9422027925754288  0.9572424793014918  1.0000
  C   C33       1.0  0.1366817489666925  0.6106431925111114  0.3659822744416552  1.0000
  C   C34       1.0  0.8633182500443136  0.11064319283278122  0.13401772579193208  1.0000
  C   C35       1.0  0.8633182503912721  0.3893568077527991  0.634017725290342  1.0000
  C   C36       1.0  0.13668174960323454  0.8893568074311292  0.8659822746510751  1.0000
  C   C37       1.0  0.12783868610576693  0.5438658901765934  0.28443640465249254  1.0000
  C   C38       1.0  0.8721613143328925  0.04386589049826325  0.21556359558190655  1.0000
  C   C39       1.0  0.872161314679851  0.4561341100873171  0.7155635950803164  1.0000
  C   C40       1.0  0.12783868531465567  0.9561341097656472  0.7844364048611006  1.0000
  C   C41       1.0  0.18704004279239086  0.42066805607829827  0.2902269944878992  1.0000
  C   C42       1.0  0.8129599562186154  0.9206680566638786  0.20977300574568805  1.0000
  C   C43       1.0  0.8129599568551574  0.5793319441856123  0.7097730059551081  1.0000
  C   C44       1.0  0.18704004313934913  0.0793319436000319  0.790226993986309  1.0000
  C   C45       1.0  0.25553407094640357  0.366047378008749  0.3766368215115692  1.0000
  C   C46       1.0  0.744465929492256  0.8660473776870792  0.12336317872282987  1.0000
  C   C47       1.0  0.744465928411561  0.6339526222551615  0.623363178220428  1.0000
  C   C48       1.0  0.25553407158294555  0.1339526216695812  0.876636821720989  1.0000
  C   C49       1.0  0.2652152028210004  0.4333075352145048  0.4610263557619919  1.0000
  C   C50       1.0  0.7347847976176592  0.9333075358000852  0.03897364447240718  1.0000
  C   C51       1.0  0.7347847965369642  0.5666924641421553  0.5389736439700052  1.0000
  C   C52       1.0  0.26521520345754246  0.06669246446382528  0.9610263559714118  1.0000
  N   N1        1.0  0.33532868997678583  0.37869226254147137  0.5477659584823349  1.0000
  N   N2        1.0  0.6646713100177206  0.8786922622198015  0.952234041459082  1.0000
  N   N3        1.0  0.6646713108088319  0.6213077377224391  0.45223404125047395  1.0000
  N   N4        1.0  0.3353286893402439  0.12130773804410894  0.04776595827291514  1.0000
  O   O1        1.0  0.4036204717215216  0.267404564631075  0.5504256129535866  1.0000
  O   O2        1.0  0.596379528272985  0.7674045643094052  0.9495743869878305  1.0000
  O   O3        1.0  0.5963795276364429  0.7325954356328356  0.4495743867784105  1.0000
  O   O4        1.0  0.4036204728022166  0.23259543595450535  0.050425613455988574  1.0000
  I   I1        1.0  0.1408453889692271  0.09207304110608461  0.5159081122821998  1.0000
  I   I2        1.0  0.8591546110252795  0.5920730407844147  0.9840918876592173  1.0000
  I   I3        1.0  0.8591546103887375  0.9079269591578258  0.48409188744979736  1.0000
  I   I4        1.0  0.1408453897603384  0.4079269594794957  0.015908112073591742  1.0000
