data_image0
_chemical_formula_structural       H62C54N2O4F4
_chemical_formula_sum              "H62 C54 N2 O4 F4"
_cell_length_a       7.731549984285715
_cell_length_b       9.53825158395133
_cell_length_c       15.153255205187637
_cell_angle_alpha    92.25010351356298
_cell_angle_beta     91.35960090797123
_cell_angle_gamma    90.00323943674566

_space_group_name_H-M_alt    "P 1"
_space_group_IT_number       1

loop_
  _space_group_symop_operation_xyz
  'x, y, z'

loop_
  _atom_site_type_symbol
  _atom_site_label
  _atom_site_symmetry_multiplicity
  _atom_site_fract_x
  _atom_site_fract_y
  _atom_site_fract_z
  _atom_site_occupancy
  H   H1        1.0  0.6408595205016058  0.9712003231336304  0.7825736296183539  1.0000
  H   H2        1.0  0.3591404792901319  0.028799677325414844  0.21742637084813207  1.0000
  H   H3        1.0  0.8883192026374546  0.09950258236968848  0.7160102689027215  1.0000
  H   H4        1.0  0.11168079714883081  0.9004974170401587  0.28398973153407786  1.0000
  H   H5        1.0  0.9294235284168999  0.07309929637363274  0.5520768538481935  1.0000
  H   H6        1.0  0.07057647135497473  0.926900703042121  0.44792314592870486  1.0000
  H   H7        1.0  0.3818981766180863  0.7091093416710184  0.5455675480438961  1.0000
  H   H8        1.0  0.6181018244474631  0.2908906577414172  0.45443245174121555  1.0000
  H   H9        1.0  0.3257457767214962  0.4337899402290345  0.5423943626559452  1.0000
  H   H10       1.0  0.6742542230503782  0.5662100591867192  0.4576056371209528  1.0000
  H   H11       1.0  0.0639124793883996  0.3101475610821241  0.5899787159177488  1.0000
  H   H12       1.0  0.936087520383475  0.6898524383336296  0.4100212838591494  1.0000
  H   H13       1.0  0.8472507421163089  0.7179481941115764  0.6602301058716606  1.0000
  H   H14       1.0  0.15274925765556566  0.2820518053041773  0.33976989390523743  1.0000
  H   H15       1.0  0.11821441379503557  0.8223655983469893  0.6114536878172855  1.0000
  H   H16       1.0  0.8817855859768389  0.17763440106876435  0.3885463119596128  1.0000
  H   H17       1.0  0.7694762755458618  0.31781657682711284  0.6425688141178636  1.0000
  H   H18       1.0  0.2305237242260127  0.6821834225886408  0.35743118565903453  1.0000
  H   H19       1.0  0.6512051819072929  0.6062070758603234  0.7171168376947586  1.0000
  H   H20       1.0  0.3487948191637086  0.39379292460130993  0.28288316212003933  1.0000
  H   H21       1.0  0.5250953351562232  0.21994614768399556  0.6717564691908237  1.0000
  H   H22       1.0  0.4749046646355144  0.7800538527750497  0.32824353127566225  1.0000
  H   H23       1.0  0.2607407571184809  0.11888995086623308  0.7313767699804294  1.0000
  H   H24       1.0  0.7392592426533937  0.8811100485495206  0.26862322979646874  1.0000
  H   H25       1.0  0.13239678939079605  0.5209970472471516  0.8521001656536568  1.0000
  H   H26       1.0  0.8676032103865307  0.47900295321779995  0.147899834152928  1.0000
  H   H27       1.0  0.3985120659269354  0.6208447321329984  0.7954593690022491  1.0000
  H   H28       1.0  0.6014879338449391  0.37915526728275517  0.2045406307746491  1.0000
  H   H29       1.0  0.8695431233804082  0.4186013482303022  0.8374877291570124  1.0000
  H   H30       1.0  0.13045687770500414  0.5813986522254249  0.16251227131768686  1.0000
  H   H31       1.0  0.9833629816541704  0.3730068883908697  0.9364812415894733  1.0000
  H   H32       1.0  0.016637018123156343  0.6269931120740817  0.06351875821711131  1.0000
  H   H33       1.0  0.8228867527750914  0.14393785757386773  0.9325121034607011  1.0000
  H   H34       1.0  0.17711324829591005  0.8560621428877656  0.06748789635409688  1.0000
  H   H35       1.0  0.7070000535519311  0.19432890791248172  0.8364938690574144  1.0000
  H   H36       1.0  0.2929999462253955  0.8056710925524698  0.16350613074917028  1.0000
  H   H37       1.0  0.6944703177015371  0.3530132822293304  0.016519027462822758  1.0000
  H   H38       1.0  0.30552968207033737  0.6469867171864233  0.9834809723140754  1.0000
  H   H39       1.0  0.5775875745053396  0.39647241632894975  0.919730882003652  1.0000
  H   H40       1.0  0.42241242528639783  0.6035275841300956  0.08026911846283388  1.0000
  H   H41       1.0  0.5448486319295797  0.11992546824030828  0.014910329737665129  1.0000
  H   H42       1.0  0.4551513678477469  0.880074532224643  0.9850896700689196  1.0000
  H   H43       1.0  0.4315952797088267  0.1606217834268205  0.9167083592205202  1.0000
  H   H44       1.0  0.5684047200685  0.8393782170381311  0.08329164058606453  1.0000
  H   H45       1.0  0.40407116569092927  0.32427552162548157  0.09419167373745488  1.0000
  H   H46       1.0  0.5959288340863974  0.67572447883947  0.9058083260691298  1.0000
  H   H47       1.0  0.2919727831430594  0.3652672914985404  0.9961694358742611  1.0000
  H   H48       1.0  0.708027216643226  0.634732707911307  0.003830564562538363  1.0000
  H   H49       1.0  0.259548813440931  0.08523229099068926  0.0877101752392563  1.0000
  H   H50       1.0  0.7404511863453545  0.9147677084191581  0.9122898251975431  1.0000
  H   H51       1.0  0.1396899504025105  0.1339183156473409  0.9936887133346061  1.0000
  H   H52       1.0  0.8603100493748161  0.8660816848176105  0.00631128647197875  1.0000
  H   H53       1.0  0.13041763704638504  0.2865948814287368  0.17576316247939558  1.0000
  H   H54       1.0  0.8695823640191644  0.7134051179836988  0.824236837305716  1.0000
  H   H55       1.0  0.009531423355944948  0.3334930252095532  0.08171122795745576  1.0000
  H   H56       1.0  0.9904685764357926  0.666506975249492  0.9182887725090302  1.0000
  H   H57       1.0  0.8505194809312917  0.10211836546565335  0.08039712574394425  1.0000
  H   H58       1.0  0.14948051884603503  0.8978816349992981  0.9196028740626405  1.0000
  H   H59       1.0  0.8303848905053697  0.19337542532260577  0.18405969826689444  1.0000
  H   H60       1.0  0.16961510928636794  0.8066245751364395  0.8159403021995915  1.0000
  H   H61       1.0  0.9765670672195774  0.05123572746362688  0.17274843799542164  1.0000
  H   H62       1.0  0.02343293256670795  0.9487642719462204  0.8272515624413779  1.0000
  C   C1        1.0  0.5810236376057475  0.8516451070237426  0.5672309354889226  1.0000
  C   C2        1.0  0.41897636218599005  0.14835489343530256  0.4327690649775634  1.0000
  C   C3        1.0  0.5595981770468029  0.8759849439702013  0.6587941551039955  1.0000
  C   C4        1.0  0.44040182401874645  0.12401505544223433  0.34120584468111603  1.0000
  C   C5        1.0  0.6669271976656921  0.9610108967251024  0.712298298392571  1.0000
  C   C6        1.0  0.3330728034053094  0.038989103736530945  0.287701701422227  1.0000
  C   C7        1.0  0.8031565367339637  0.03212013511822431  0.6748187075325187  1.0000
  C   C8        1.0  0.19684346303791078  0.9678798642975291  0.32518129224437947  1.0000
  C   C9        1.0  0.8267364206329506  0.017401602938561637  0.5838803258069708  1.0000
  C   C10       1.0  0.17326357915333473  0.9825983964712858  0.4161196746298288  1.0000
  C   C11       1.0  0.7178890341382292  0.9295120412483915  0.5332159054595377  1.0000
  C   C12       1.0  0.2821109656390975  0.07048795921656009  0.466784094347047  1.0000
  C   C13       1.0  0.2164679007483424  0.4925284957336123  0.569294492148419  1.0000
  C   C14       1.0  0.7835320990235322  0.5074715036821413  0.43070550762847926  1.0000
  C   C15       1.0  0.06925784207084863  0.42420766545824035  0.5962398075833505  1.0000
  C   C16       1.0  0.9307421577064781  0.5757923350067111  0.4037601922232343  1.0000
  C   C17       1.0  0.929374409382606  0.5018299251197316  0.6306713288869776  1.0000
  C   C18       1.0  0.0706255903892686  0.498170074296022  0.36932867088992044  1.0000
  C   C19       1.0  0.9495009364548979  0.6490413596656717  0.6360999586568904  1.0000
  C   C20       1.0  0.050499063322428886  0.35095864079927985  0.36390004114969426  1.0000
  C   C21       1.0  0.1002790929837832  0.7088767189623908  0.6078374497627059  1.0000
  C   C22       1.0  0.8997209080872183  0.2911232814992426  0.39216255005209216  1.0000
  C   C23       1.0  0.7745272396909922  0.4306543626855431  0.6577842826327767  1.0000
  C   C24       1.0  0.22547276008088235  0.5693456367302107  0.3422157171441214  1.0000
  C   C25       1.0  0.642091100540304  0.49364093773095025  0.7011346257272975  1.0000
  C   C26       1.0  0.3579088992370227  0.5063590627340012  0.2988653740792872  1.0000
  C   C27       1.0  0.48661039758470614  0.4281499483253322  0.731915974678618  1.0000
  C   C28       1.0  0.5133896021871684  0.5718500510904215  0.26808402509828017  1.0000
  C   C29       1.0  0.44338246803134634  0.28570428390623775  0.7137368777058934  1.0000
  C   C30       1.0  0.5566175330396551  0.7142957165553956  0.2862631221089046  1.0000
  C   C31       1.0  0.2944801347246102  0.22834349001278031  0.7462251500625783  1.0000
  C   C32       1.0  0.7055198650527165  0.7716565104521711  0.2537748497440064  1.0000
  C   C33       1.0  0.1815047385456948  0.31209752890851694  0.7969770449530453  1.0000
  C   C34       1.0  0.8184952612261797  0.6879024705072367  0.20302295482385288  1.0000
  C   C35       1.0  0.22021090701171156  0.4539618061369291  0.8148416595692122  1.0000
  C   C36       1.0  0.7797890927601631  0.5460381932788246  0.185158340207686  1.0000
  C   C37       1.0  0.3708668972299094  0.5099219405038271  0.7824796934836162  1.0000
  C   C38       1.0  0.6291331025474172  0.49007805996112436  0.21752030632296848  1.0000
  C   C39       1.0  0.9163122715803316  0.3303365274226338  0.8762031495843823  1.0000
  C   C40       1.0  0.08368772948521792  0.6696634719898017  0.1237968502007293  1.0000
  C   C41       1.0  0.7691727920235458  0.23473852042669652  0.8984768402089719  1.0000
  C   C42       1.0  0.23082720775378088  0.765261480038255  0.10152315959761288  1.0000
  C   C43       1.0  0.6333112897030115  0.307954442022467  0.9552570330540514  1.0000
  C   C44       1.0  0.36668871137694875  0.6920455573840621  0.04474296739096136  1.0000
  C   C45       1.0  0.488884679989855  0.20749333534377182  0.9783623387370651  1.0000
  C   C46       1.0  0.5111153197964303  0.7925066640660756  0.0216376616997343  1.0000
  C   C47       1.0  0.3466356616146225  0.2770740340258036  0.032648793952808564  1.0000
  C   C48       1.0  0.6533643381627042  0.7229259664391479  0.9673512058537761  1.0000
  C   C49       1.0  0.20238211421616792  0.1762097932981  0.055212507809548124  1.0000
  C   C50       1.0  0.7976178868548336  0.8237902071635334  0.9447874920052499  1.0000
  C   C51       1.0  0.06631292610499619  0.2427835193656949  0.11496695541397323  1.0000
  C   C52       1.0  0.9336870736668782  0.7572164800500588  0.885033044362925  1.0000
  C   C53       1.0  0.9229862593600726  0.14232106609567083  0.1393767424862055  1.0000
  C   C54       1.0  0.07701374043166495  0.8576789343633744  0.8606232579802804  1.0000
  N   N1        1.0  0.23199704224192957  0.6329543376729195  0.5744718250582596  1.0000
  N   N2        1.0  0.7680029575498079  0.3670456627861257  0.4255281754082264  1.0000
  O   O1        1.0  0.4870202328159288  0.7647778633951174  0.5146476897825782  1.0000
  O   O2        1.0  0.5129797682694835  0.23522213706060965  0.48535231069212115  1.0000
  O   O3        1.0  0.03662213584034883  0.24756065251871787  0.8247547670368339  1.0000
  O   O4        1.0  0.9633778639369779  0.7524393479462336  0.17524523276975087  1.0000
  F   F1        1.0  0.4245822589956988  0.8097819729126399  0.6973324811131609  1.0000
  F   F2        1.0  0.5754177407816279  0.19021802755231168  0.30266751869342384  1.0000
  F   F3        1.0  0.7441351241481636  0.9146984429777906  0.44419299970542653  1.0000
  F   F4        1.0  0.2558648756381217  0.0853015564320567  0.5558070007313729  1.0000
