data_image0
_chemical_formula_structural       H58C54N2O4F8
_chemical_formula_sum              "H58 C54 N2 O4 F8"
_cell_length_a       5.637647714399514
_cell_length_b       12.329036729396979
_cell_length_c       16.73414985717911
_cell_angle_alpha    99.93897468696086
_cell_angle_beta     95.60811063884323
_cell_angle_gamma    92.62445330121263

_space_group_name_H-M_alt    "P 1"
_space_group_IT_number       1

loop_
  _space_group_symop_operation_xyz
  'x, y, z'

loop_
  _atom_site_type_symbol
  _atom_site_label
  _atom_site_symmetry_multiplicity
  _atom_site_fract_x
  _atom_site_fract_y
  _atom_site_fract_z
  _atom_site_occupancy
  H   H1        1.0  0.7775434537269345  0.4527526559672858  0.009776118111740928  1.0000
  H   H2        1.0  0.2224565473185105  0.5472473439861738  0.9902238817995265  1.0000
  H   H3        1.0  0.11963328316513551  0.4222478079106508  0.35161758127763193  1.0000
  H   H4        1.0  0.8803667178803093  0.5777521920428089  0.6483824186336353  1.0000
  H   H5        1.0  0.3885871695359114  0.36902321710991676  0.6036693826126066  1.0000
  H   H6        1.0  0.611412829726733  0.6309767828398953  0.39633061723779844  1.0000
  H   H7        1.0  0.11282821523851295  0.4339523714569597  0.5027955276363761  1.0000
  H   H8        1.0  0.8871717840189427  0.5660476284920231  0.4972044728113304  1.0000
  H   H9        1.0  0.5226507982139731  0.32946195686969726  0.3150974541614615  1.0000
  H   H10       1.0  0.4773492010486714  0.6705380430801148  0.6849025456889436  1.0000
  H   H11       1.0  0.8182144261705097  0.2570893755442886  0.40786072485982644  1.0000
  H   H12       1.0  0.18178557487493516  0.7429106244091711  0.5921392750514408  1.0000
  H   H13       1.0  0.9491742474842081  0.21850887525741577  0.5391742566243244  1.0000
  H   H14       1.0  0.05082575366231711  0.781491125520345  0.46082574399326287  1.0000
  H   H15       1.0  0.679616336125072  0.3256217970185496  0.6809709214982199  1.0000
  H   H16       1.0  0.32038366491518405  0.6743782029340808  0.3190290790103488  1.0000
  H   H17       1.0  0.2200785494490019  0.16331626489274803  0.6199267186722323  1.0000
  H   H18       1.0  0.779921451596443  0.8366837350607117  0.3800732812390351  1.0000
  H   H19       1.0  0.5106434281095968  0.1069194915877162  0.7225434102947134  1.0000
  H   H20       1.0  0.48935657293584794  0.8930805083657434  0.2774565896165539  1.0000
  H   H21       1.0  0.10621285643202262  0.25341276146937003  0.9146099028184316  1.0000
  H   H22       1.0  0.8937871446134222  0.7465872384840896  0.08539009709283582  1.0000
  H   H23       1.0  0.8157661499076764  0.3093820797094806  0.8127822355349575  1.0000
  H   H24       1.0  0.18423384934977943  0.6906179202395021  0.18721776491274894  1.0000
  H   H25       1.0  0.3155824630461922  0.13193368811165246  0.9767883576753311  1.0000
  H   H26       1.0  0.6844175379992526  0.868066311841807  0.02321164223593628  1.0000
  H   H27       1.0  0.4805519179270692  0.25987401551224815  0.9806409022701279  1.0000
  H   H28       1.0  0.5194480813303867  0.7401259844367346  0.019359098177578696  1.0000
  H   H29       1.0  0.8618968651204326  0.16884191233746043  0.9928670328968999  1.0000
  H   H30       1.0  0.1381031359250124  0.8311580876159992  0.0071329670143674825  1.0000
  H   H31       1.0  0.7073273540602111  0.03863706158095984  0.9816317459427933  1.0000
  H   H32       1.0  0.2926726451972446  0.961362938368023  0.018368254504913112  1.0000
  H   H33       1.0  0.526962707480009  0.09936957833153334  0.11237327096093827  1.0000
  H   H34       1.0  0.4730372935602471  0.9006304216210969  0.8876267295476304  1.0000
  H   H35       1.0  0.6715579279883864  0.23163804587581424  0.12284919238238282  1.0000
  H   H36       1.0  0.32844207127425806  0.7683619540739979  0.8771508074680223  1.0000
  H   H37       1.0  0.07094537768649353  0.14589824064587695  0.12861265915452622  1.0000
  H   H38       1.0  0.9290546233589513  0.8541017593075826  0.8713873407567412  1.0000
  H   H39       1.0  0.9224650881271107  0.014884903757989818  0.11940920938400153  1.0000
  H   H40       1.0  0.07753491291833407  0.9851150961954699  0.8805907905272657  1.0000
  H   H41       1.0  0.9056904591275486  0.20914198957850622  0.26001086688317737  1.0000
  H   H42       1.0  0.09430954191789623  0.7908580103749533  0.73998913302809  1.0000
  H   H43       1.0  0.7372388027183175  0.08233345159608592  0.24955834599393042  1.0000
  H   H44       1.0  0.2627611983271274  0.9176665483573737  0.7504416539173369  1.0000
  H   H45       1.0  0.2850650694428976  0.10666930842584081  0.2636399361104116  1.0000
  H   H46       1.0  0.7149349315973583  0.8933306915267895  0.7363600643981573  1.0000
  H   H47       1.0  0.11049723530457951  0.9818851509641767  0.2550208311656271  1.0000
  H   H48       1.0  0.8895027657356765  0.018114848988453527  0.7449791693429416  1.0000
  H   H49       1.0  0.9416062735583481  0.05946407619094716  0.3865441005168051  1.0000
  H   H50       1.0  0.0583937274870967  0.9405359237625124  0.6134558993944622  1.0000
  H   H51       1.0  0.1323577299004448  0.17942736932130202  0.39514013590497415  1.0000
  H   H52       1.0  0.8676422711398112  0.8205726306313283  0.6048598646035945  1.0000
  H   H53       1.0  0.29661043477924137  0.9455169992040611  0.39739360989810707  1.0000
  H   H54       1.0  0.7033895644834032  0.05448300074575109  0.6026063899522982  1.0000
  H   H55       1.0  0.3152088595307661  0.055493606287285974  0.48168180373771574  1.0000
  H   H56       1.0  0.6847911415146788  0.9445063936661736  0.5183181961735517  1.0000
  H   H57       1.0  0.49138312691058683  0.06418890434328973  0.40089362213940044  1.0000
  H   H58       1.0  0.5086168723520578  0.9358110956065224  0.5991063777110047  1.0000
  C   C1        1.0  0.9182530374429011  0.45207165233936264  0.24639712705174585  1.0000
  C   C2        1.0  0.08174696360254387  0.5479283476140969  0.7536028728595214  1.0000
  C   C3        1.0  0.061167335059681  0.40036233171352614  0.18824972922152422  1.0000
  C   C4        1.0  0.9388326659857639  0.5996376682399334  0.811750270689743  1.0000
  C   C5        1.0  0.00977863401531643  0.4011092320596589  0.10549056384992116  1.0000
  C   C6        1.0  0.9902213652473282  0.5988907678901532  0.8945094360004839  1.0000
  C   C7        1.0  0.8153421609531754  0.4519571995032077  0.0744944978517369  1.0000
  C   C8        1.0  0.1846578383094692  0.5480428004466045  0.9255055019986682  1.0000
  C   C9        1.0  0.6712760009053795  0.5019533027354453  0.1310389179503834  1.0000
  C   C10       1.0  0.3287240001400653  0.4980466972180145  0.868961081960884  1.0000
  C   C11       1.0  0.7185890676212494  0.5015494562157657  0.2137923185068526  1.0000
  C   C12       1.0  0.28141093341900664  0.49845054373686454  0.7862076820017162  1.0000
  C   C13       1.0  0.4288698936266465  0.35713804679166183  0.540702721977827  1.0000
  C   C14       1.0  0.571130105635998  0.6428619531581503  0.4592972778725783  1.0000
  C   C15       1.0  0.27252827854460004  0.394558546606871  0.4840802671699525  1.0000
  C   C16       1.0  0.7274717207180443  0.6054414533429412  0.5159197326804527  1.0000
  C   C17       1.0  0.49964829912799147  0.3358356518114368  0.37937815049348683  1.0000
  C   C18       1.0  0.5003517019174535  0.6641643481420227  0.6206218494177804  1.0000
  C   C19       1.0  0.6643640896015931  0.29573263770815716  0.4320115820866625  1.0000
  C   C20       1.0  0.3356359114438518  0.7042673622453024  0.5679884178246049  1.0000
  C   C21       1.0  0.6343727752388508  0.3053564759773255  0.5155432210407362  1.0000
  C   C22       1.0  0.36562722580659396  0.6946435239761342  0.48445677887053096  1.0000
  C   C23       1.0  0.8108430932032648  0.2635755561300786  0.5694788100355568  1.0000
  C   C24       1.0  0.18915690605937965  0.7364244438197336  0.4305211898148484  1.0000
  C   C25       1.0  0.8178424782553786  0.27915930159450697  0.651964834791426  1.0000
  C   C26       1.0  0.1821575210072658  0.7208406983553052  0.3480351650589792  1.0000
  C   C27       1.0  0.9931255979481557  0.24127666034756406  0.7083529120276506  1.0000
  C   C28       1.0  0.006874401314488844  0.7587233396022479  0.2916470878227546  1.0000
  C   C29       1.0  0.1921854162019036  0.18298649557389016  0.6842504656191754  1.0000
  C   C30       1.0  0.8078145848435413  0.8170135043795693  0.31574953429209196  1.0000
  C   C31       1.0  0.3564424359435264  0.15090858627556525  0.7411372215494129  1.0000
  C   C32       1.0  0.6435575650967297  0.849091413677065  0.25886277895915594  1.0000
  C   C33       1.0  0.3283121105598543  0.1759320699048809  0.8249320571791325  1.0000
  C   C34       1.0  0.6716878904855907  0.8240679300485788  0.17506794273213488  1.0000
  C   C35       1.0  0.13105346826868158  0.23259021688111078  0.8503418247280387  1.0000
  C   C36       1.0  0.8689465311002319  0.7674097838938315  0.14965817523138508  1.0000
  C   C37       1.0  0.9675489079030001  0.2645111000958828  0.7923780442560218  1.0000
  C   C38       1.0  0.03245109135964438  0.7354888998539293  0.2076219555943834  1.0000
  C   C39       1.0  0.4841480527704532  0.16978611144646924  0.9625920250217892  1.0000
  C   C40       1.0  0.5158519482698029  0.830213888506161  0.037407975486779474  1.0000
  C   C41       1.0  0.6980230486190183  0.1268561201263843  0.006464807568058632  1.0000
  C   C42       1.0  0.30197695064362623  0.8731438798234277  0.9935351922823465  1.0000
  C   C43       1.0  0.6885163270287712  0.14358334330905104  0.09874735508788603  1.0000
  C   C44       1.0  0.3114836740114849  0.8564166566435794  0.9012526454206827  1.0000
  C   C45       1.0  0.9084141870714231  0.10330670058943477  0.14306000436995553  1.0000
  C   C46       1.0  0.09158581218603278  0.896693299359548  0.8569399960777511  1.0000
  C   C47       1.0  0.9058644788628729  0.12012654909493234  0.23553332655504494  1.0000
  C   C48       1.0  0.09413552218257183  0.8798734508585273  0.7644666733562225  1.0000
  C   C49       1.0  0.1155552522816767  0.07113904980975165  0.2788403607410708  1.0000
  C   C50       1.0  0.8844447487637681  0.928860950143708  0.7211596391701965  1.0000
  C   C51       1.0  0.11581623903846174  0.09009530785618312  0.37152797748104077  1.0000
  C   C52       1.0  0.8841837602241829  0.9099046920936291  0.6284720223693644  1.0000
  C   C53       1.0  0.3153347322276906  0.035708293860586486  0.41516506158237015  1.0000
  C   C54       1.0  0.6846652688177544  0.9642917060928732  0.5848349383288972  1.0000
  N   N1        1.0  0.30442708849071937  0.3844310941824857  0.4042940244617997  1.0000
  N   N2        1.0  0.6955729107667363  0.6155689057664971  0.5957059759859069  1.0000
  O   O1        1.0  0.9567958305957925  0.4562926277930379  0.3261516045366354  1.0000
  O   O2        1.0  0.04320417044965228  0.5437073721604216  0.6738483953746318  1.0000
  O   O3        1.0  0.5009378716582162  0.1422694656070418  0.8761502516671112  1.0000
  O   O4        1.0  0.49906212760442825  0.8577305343427704  0.12384974818329395  1.0000
  F   F1        1.0  0.25267283810495994  0.3469541268986301  0.2137310877261575  1.0000
  F   F2        1.0  0.7473271611524959  0.6530458730503528  0.7862689127215491  1.0000
  F   F3        1.0  0.15674126117595932  0.34861390579730667  0.05337265592456072  1.0000
  F   F4        1.0  0.8432587398694854  0.6513860941561529  0.9466273439867066  1.0000
  F   F5        1.0  0.47875926625146953  0.5551423702062583  0.10568979664805578  1.0000
  F   F6        1.0  0.521240733011175  0.4448576297435537  0.8943102032023493  1.0000
  F   F7        1.0  0.5702160915277796  0.551739703534759  0.2657594337198262  1.0000
  F   F8        1.0  0.42978390773486486  0.4482602964150531  0.734240566130579  1.0000
