data_image0
_chemical_formula_structural       H16C26N8O2
_chemical_formula_sum              "H16 C26 N8 O2"
_cell_length_a       7.583675423554584
_cell_length_b       8.569491361256167
_cell_length_c       9.520025015050352
_cell_angle_alpha    74.77208404802803
_cell_angle_beta     80.25738051412186
_cell_angle_gamma    62.78259007799641

_space_group_name_H-M_alt    "P 1"
_space_group_IT_number       1

loop_
  _space_group_symop_operation_xyz
  'x, y, z'

loop_
  _atom_site_type_symbol
  _atom_site_label
  _atom_site_symmetry_multiplicity
  _atom_site_fract_x
  _atom_site_fract_y
  _atom_site_fract_z
  _atom_site_occupancy
  H   H1        1.0  0.06773894403654439  0.06395108257988304  0.5724313735926492  1.0000
  H   H2        1.0  0.9322610561405918  0.9360489164370356  0.4275686267377253  1.0000
  H   H3        1.0  0.7960012633634574  0.16147519319352682  0.15033278221191054  1.0000
  H   H4        1.0  0.2039987361845345  0.8385248071658011  0.8496672178761812  1.0000
  H   H5        1.0  0.9960110696599035  0.5775752283086623  0.36806496645863296  1.0000
  H   H6        1.0  0.003988929888088249  0.42242477205066564  0.6319350336294588  1.0000
  H   H7        1.0  0.876738994978978  0.8235929223025492  0.1493728395388316  1.0000
  H   H8        1.0  0.12326100456901382  0.17640707805677877  0.8506271605492601  1.0000
  H   H9        1.0  0.7211475466490851  0.7938632717732508  0.9559206815275  1.0000
  H   H10       1.0  0.278852452898907  0.20613672858607715  0.0440793185605917  1.0000
  H   H11       1.0  0.6851577946944144  0.5177403970845026  0.968757698803373  1.0000
  H   H12       1.0  0.31484220485357745  0.4822596032748253  0.031242301284718697  1.0000
  H   H13       1.0  0.3415103847513795  0.5274077442864582  0.27958325743562623  1.0000
  H   H14       1.0  0.6584896147966124  0.47259225607286975  0.7204167426524654  1.0000
  H   H15       1.0  0.43296493123116797  0.2520063028128997  0.4670341081880306  1.0000
  H   H16       1.0  0.5670350683168239  0.7479936975464283  0.532965891900061  1.0000
  C   C1        1.0  0.9666158516692089  0.23651363384306254  0.39115911356524985  1.0000
  C   C2        1.0  0.03338414922402584  0.7634863665006618  0.6088408863566444  1.0000
  C   C3        1.0  0.8271145534190677  0.38765070825859965  0.17588986458216405  1.0000
  C   C4        1.0  0.17288544749465165  0.6123492920725541  0.8241101342896309  1.0000
  C   C5        1.0  0.9154779693571015  0.40364133943017544  0.2886622683473991  1.0000
  C   C6        1.0  0.08452203082003484  0.5963586595867432  0.7113377319829752  1.0000
  C   C7        1.0  0.9335862968221064  0.5615868198192968  0.2808267123942896  1.0000
  C   C8        1.0  0.06641370272588545  0.4384131805400312  0.7191732876938021  1.0000
  C   C9        1.0  0.8642312760695412  0.6994727796280532  0.1598729936685013  1.0000
  C   C10       1.0  0.13576872349893537  0.3005272207187041  0.8401270053694911  1.0000
  C   C11       1.0  0.7749475541058354  0.68267374696686  0.04908895914496646  1.0000
  C   C12       1.0  0.22505244741654373  0.3173262520344549  0.9509110410192106  1.0000
  C   C13       1.0  0.7536650288202618  0.528746661268799  0.05493779548487819  1.0000
  C   C14       1.0  0.24633497072773028  0.4712533390905289  0.9450622046032134  1.0000
  C   C15       1.0  0.4472749179714615  0.659163234150693  0.3910785412800712  1.0000
  C   C16       1.0  0.5527250815970153  0.3408367661960643  0.6089214577579211  1.0000
  C   C17       1.0  0.4107455220994388  0.5141975680819895  0.37607124063699343  1.0000
  C   C18       1.0  0.5892544774690378  0.48580243226476766  0.6239287584009989  1.0000
  C   C19       1.0  0.46082998084614424  0.3608329846447262  0.4810900790529317  1.0000
  C   C20       1.0  0.5391700193309921  0.6391670143721924  0.5189099212774428  1.0000
  C   C21       1.0  0.3959172332939111  0.8172055250428834  0.2832736007942946  1.0000
  C   C22       1.0  0.6040827662540809  0.18279447531644463  0.7167263992937971  1.0000
  C   C23       1.0  0.43589156031238757  0.9602244464267926  0.2925997986139082  1.0000
  C   C24       1.0  0.5641084392356045  0.0397755539325353  0.7074002014741835  1.0000
  C   C25       1.0  0.3086705769740064  0.8411885767182735  0.15439788747082048  1.0000
  C   C26       1.0  0.6913294239192281  0.15881142362545075  0.8456021124510736  1.0000
  N   N1        1.0  0.9165949558861398  0.1283126051397112  0.34385925968851994  1.0000
  N   N2        1.0  0.08340504429099638  0.8716873938772074  0.6561407406418545  1.0000
  N   N3        1.0  0.8301056130099099  0.22187407999503198  0.2140429457246511  1.0000
  N   N4        1.0  0.16989438716722635  0.7781259190218867  0.7859570546057235  1.0000
  N   N5        1.0  0.4683939328999641  0.07995042466619842  0.2963067210089849  1.0000
  N   N6        1.0  0.5316060672771722  0.9200495743507203  0.7036932793213896  1.0000
  N   N7        1.0  0.23968243440015327  0.8624469786162168  0.04616092446763808  1.0000
  N   N8        1.0  0.7603175651478385  0.13755302174311126  0.9538390756204537  1.0000
  O   O1        1.0  0.050992524288478315  0.19118844282046507  0.5162321700189927  1.0000
  O   O2        1.0  0.9490074758886582  0.8088115561964535  0.4837678303113817  1.0000
