data_image0
_chemical_formula_structural       H28B44C4N12P12Cl24Br24
_chemical_formula_sum              "H28 B44 C4 N12 P12 Cl24 Br24"
_cell_length_a       9.092376267094338
_cell_length_b       23.232110285549023
_cell_length_c       12.713056412221658
_cell_angle_alpha    90.0
_cell_angle_beta     96.26910196631765
_cell_angle_gamma    90.0

_space_group_name_H-M_alt    "P 1"
_space_group_IT_number       1

loop_
  _space_group_symop_operation_xyz
  'x, y, z'

loop_
  _atom_site_type_symbol
  _atom_site_label
  _atom_site_symmetry_multiplicity
  _atom_site_fract_x
  _atom_site_fract_y
  _atom_site_fract_z
  _atom_site_occupancy
  H   H1        1.0  0.2711852606126981  0.32327589305013127  0.9005729569829893  1.0000
  H   H2        1.0  0.7288147395592052  0.8232758929307056  0.5994270428437801  1.0000
  H   H3        1.0  0.7288147394971852  0.676724107141456  0.09942704343190253  1.0000
  H   H4        1.0  0.27118526043103486  0.17672410683044304  0.40057295677978705  1.0000
  H   H5        1.0  0.017887408188204872  0.3262148568016279  0.7540300395438876  1.0000
  H   H6        1.0  0.9821125919836983  0.8262148571126409  0.7459699602828819  1.0000
  H   H7        1.0  0.982112591802035  0.6737851429595206  0.2459699600796797  1.0000
  H   H8        1.0  0.017887408006541646  0.17378514307894644  0.2540300393406853  1.0000
  H   H9        1.0  0.23325022580518398  0.22960720547706975  0.7655128204733914  1.0000
  H   H10       1.0  0.7667497744863625  0.7296072053576441  0.7344871801447024  1.0000
  H   H11       1.0  0.7667497743046993  0.7703927942840788  0.23448717994150037  1.0000
  H   H12       1.0  0.23325022562352077  0.27039279440350455  0.26551282027018924  1.0000
  H   H13       1.0  0.5299228580918378  0.27696612623272676  0.8340494311751291  1.0000
  H   H14       1.0  0.47007714208006546  0.776966126113301  0.6659505686516402  1.0000
  H   H15       1.0  0.4700771418984023  0.7230338739588604  0.16595056844843808  1.0000
  H   H16       1.0  0.5299228580298179  0.22303387364784755  0.3340494317632516  1.0000
  H   H17       1.0  0.49591741604976036  0.40245121063392214  0.8676683162054663  1.0000
  H   H18       1.0  0.5040825841221428  0.9024512109449352  0.632331683621303  1.0000
  H   H19       1.0  0.5040825839404797  0.5975487891272263  0.1323316834181009  1.0000
  H   H20       1.0  0.4959174159877404  0.09754878924665208  0.36766831679358875  1.0000
  H   H21       1.0  0.17798750556485776  0.43163213615757956  0.8168514299551488  1.0000
  H   H22       1.0  0.8220124935070942  0.9316321360381539  0.6831485698707731  1.0000
  H   H23       1.0  0.8220124944253822  0.5683678636035691  0.18314856966841842  1.0000
  H   H24       1.0  0.1779875066027891  0.06836786372299473  0.31685143054411874  1.0000
  H   H25       1.0  0.06054345914949433  0.37973724476883075  0.3506637743899579  1.0000
  H   H26       1.0  0.9394565407787258  0.879737244649405  0.14933622582173173  1.0000
  H   H27       1.0  0.9394565408407457  0.6202627554227566  0.6493362252336095  1.0000
  H   H28       1.0  0.060543459331157505  0.12026275511174353  0.85066377459316  1.0000
  B   B1        1.0  0.13813384862336986  0.33281631478865353  0.7279216019572456  1.0000
  B   B2        1.0  0.8618661504485822  0.8328163150996666  0.7720783978686762  1.0000
  B   B3        1.0  0.8618661513668702  0.6671836849724949  0.2720783976663215  1.0000
  B   B4        1.0  0.1381338496613012  0.1671836850919207  0.22792160254621563  1.0000
  B   B5        1.0  0.2669572386640315  0.27534616964947095  0.7345753843780203  1.0000
  B   B6        1.0  0.7330427615078717  0.775346169960484  0.7654246154487491  1.0000
  B   B7        1.0  0.7330427613262086  0.7246538301116776  0.26542461524554695  1.0000
  B   B8        1.0  0.26695723860201154  0.22465383023110336  0.2345753849661427  1.0000
  B   B9        1.0  0.44473641062647207  0.30404079281569557  0.7763613842607885  1.0000
  B   B10       1.0  0.5552635895454311  0.8040407931267085  0.7236386155659807  1.0000
  B   B11       1.0  0.555263589363768  0.695959206945453  0.22363861536277865  1.0000
  B   B12       1.0  0.4447364105644522  0.19595920706487874  0.276361384848911  1.0000
  B   B13       1.0  0.42447443119532213  0.37908835365154914  0.7962432218462011  1.0000
  B   B14       1.0  0.575525568976581  0.8790883535321234  0.7037567779805682  1.0000
  B   B15       1.0  0.5755255687949178  0.6209116465400382  0.20375677777736612  1.0000
  B   B16       1.0  0.42447443101365895  0.12091164622902514  0.29624322164299893  1.0000
  B   B17       1.0  0.23482763952311686  0.3967596523391835  0.7662022616898146  1.0000
  B   B18       1.0  0.7651723606487864  0.8967596522197577  0.7337977381369547  1.0000
  B   B19       1.0  0.7651723605867664  0.6032403478524038  0.23379773872507714  1.0000
  B   B20       1.0  0.23482763934145362  0.10324034754139075  0.26620226148661247  1.0000
  B   B21       1.0  0.18377143319962172  0.38200056951004924  0.6305542478542612  1.0000
  B   B22       1.0  0.8162285670919247  0.8820005698210622  0.8694457527638327  1.0000
  B   B23       1.0  0.8162285669102616  0.6179994302510993  0.36944575256063056  1.0000
  B   B24       1.0  0.18377143301795854  0.117999430370525  0.13055424765105908  1.0000
  B   B25       1.0  0.2027418620840492  0.3063941016338793  0.6108082595572992  1.0000
  B   B26       1.0  0.797258138087854  0.8063941015144536  0.8891917402694702  1.0000
  B   B27       1.0  0.7972581379061908  0.693605898557708  0.389191740066268  1.0000
  B   B28       1.0  0.20274186202202926  0.193605898246695  0.11080826014542164  1.0000
  B   B29       1.0  0.39349353706896983  0.28858560662783805  0.6411150935335775  1.0000
  B   B30       1.0  0.6065064632225766  0.788585606938851  0.8588849070845165  1.0000
  B   B31       1.0  0.6065064630409135  0.7114143931333106  0.35888490688131414  1.0000
  B   B32       1.0  0.39349353688730665  0.21141439325273625  0.14111509333037545  1.0000
  B   B33       1.0  0.49183498757696836  0.3533638511137085  0.6790699478940811  1.0000
  B   B34       1.0  0.5081650125949349  0.8533638509942828  0.8209300519326883  1.0000
  B   B35       1.0  0.5081650125329149  0.6466361490778788  0.3209300525208106  1.0000
  B   B36       1.0  0.4918349873953051  0.14663614876686581  0.179069947690879  1.0000
  B   B37       1.0  0.3618368654870268  0.41126304380291934  0.6731682595961391  1.0000
  B   B38       1.0  0.6381631346848764  0.9112630441139323  0.8268317402306302  1.0000
  B   B39       1.0  0.6381631345032133  0.5887369559582293  0.32683174002742804  1.0000
  B   B40       1.0  0.36183686530536363  0.08873695607765499  0.17316825939293695  1.0000
  B   B41       1.0  0.34204136465044765  0.3549742498050091  0.5760527903710178  1.0000
  B   B42       1.0  0.6579586356410987  0.8549742496855833  0.923947210247076  1.0000
  B   B43       1.0  0.6579586354594357  0.6450257503865782  0.423947210043874  1.0000
  B   B44       1.0  0.3420413644687845  0.14502575050600391  0.07605279016781566  1.0000
  C   C1        1.0  0.28885364626082455  0.33198666652325304  0.8188241376131772  1.0000
  C   C2        1.0  0.7111463539110787  0.8319866664038272  0.681175862213592  1.0000
  C   C3        1.0  0.7111463537294155  0.6680133336683343  0.18117586201039  1.0000
  C   C4        1.0  0.2888536461988046  0.16801333335732124  0.31882413820129957  1.0000
  N   N1        1.0  0.0058272350593879885  0.3882181764439252  0.27654566246716006  1.0000
  N   N2        1.0  0.9941727648688322  0.8882181763244994  0.22345433774452955  1.0000
  N   N3        1.0  0.9941727650504953  0.6117818237476621  0.7234543379477317  1.0000
  N   N4        1.0  0.005827235121407911  0.1117818238670878  0.7765456618790375  1.0000
  N   N5        1.0  0.7570113922570965  0.38499766185956824  0.14136555014978516  1.0000
  N   N6        1.0  0.24298860767112362  0.8849976617401425  0.3586344500619044  1.0000
  N   N7        1.0  0.24298860785278684  0.615002338332019  0.8586344502651067  1.0000
  N   N8        1.0  0.7570113923191164  0.11500233802100604  0.6413655495616627  1.0000
  N   N9        1.0  0.9874782594262127  0.4509873378363397  0.09730156103420962  1.0000
  N   N10       1.0  0.012521740502007304  0.950987337716914  0.40269843917748005  1.0000
  N   N11       1.0  0.012521740564027238  0.5490126619248088  0.9026984385893575  1.0000
  N   N12       1.0  0.9874782596078759  0.04901266204423456  0.5973015612374117  1.0000
  P   P1        1.0  0.83978710081608  0.35782595846107595  0.24411738267230873  1.0000
  P   P2        1.0  0.16021290009244807  0.8578259583416502  0.25588261674890384  1.0000
  P   P3        1.0  0.16021289917415998  0.6421740417305114  0.7558826169512584  1.0000
  P   P4        1.0  0.839787099897792  0.14217404141949833  0.7441173828746633  1.0000
  P   P5        1.0  0.8299683423892936  0.42398008226256256  0.058398031296981186  1.0000
  P   P6        1.0  0.17003165753892643  0.9239800825735754  0.4416019689147084  1.0000
  P   P7        1.0  0.17003165772058965  0.576019917498586  0.9416019691179106  1.0000
  P   P8        1.0  0.8299683425709569  0.07601991761801175  0.5583980315001834  1.0000
  P   P9        1.0  0.09306230104842021  0.4292373989031423  0.19485699441406995  1.0000
  P   P10       1.0  0.9069376988797999  0.9292373987837166  0.30514300579761966  1.0000
  P   P11       1.0  0.9069376990614632  0.570762601288445  0.8051430060008219  1.0000
  P   P12       1.0  0.09306230111044016  0.07076260097743203  0.6948569938259476  1.0000
  Cl  Cl1       1.0  0.7287921511896909  0.3653806204286189  0.3675553773497883  1.0000
  Cl  Cl2       1.0  0.2712078487385292  0.8653806203091932  0.13244462286190126  1.0000
  Cl  Cl3       1.0  0.2712078489201924  0.6346193793325297  0.6324446230651034  1.0000
  Cl  Cl4       1.0  0.7287921513713541  0.1346193794519554  0.8675553775529905  1.0000
  Cl  Cl5       1.0  0.8679065744869833  0.27392546358384373  0.2283688376459628  1.0000
  Cl  Cl6       1.0  0.13209342544123678  0.773925463464418  0.2716311625657268  1.0000
  Cl  Cl7       1.0  0.13209342562289994  0.7260745366077436  0.7716311627689288  1.0000
  Cl  Cl8       1.0  0.8679065746686465  0.2260745367271693  0.728368837849165  1.0000
  Cl  Cl9       1.0  0.6902443839296195  0.4877866664161367  0.014691749400376968  1.0000
  Cl  Cl10      1.0  0.30975561599860063  0.9877866662967109  0.4853082508113126  1.0000
  Cl  Cl11      1.0  0.3097556161802638  0.5122133333450118  0.9853082510145147  1.0000
  Cl  Cl12      1.0  0.6902443839916393  0.012213333464437563  0.5146917488122545  1.0000
  Cl  Cl13      1.0  0.8414256683196748  0.38056483381535655  0.9238040358993318  1.0000
  Cl  Cl14      1.0  0.1585743318522285  0.8805648336959307  0.5761959639274375  1.0000
  Cl  Cl15      1.0  0.1585743316705653  0.619435165945792  0.07619596372423534  1.0000
  Cl  Cl16      1.0  0.8414256681380116  0.1194351660652177  0.4238040356961297  1.0000
  Cl  Cl17      1.0  0.1843914924454335  0.49371161504577626  0.27807749598332815  1.0000
  Cl  Cl18      1.0  0.8156085074827865  0.9937116149263505  0.2219225042283614  1.0000
  Cl  Cl19      1.0  0.8156085075448064  0.506288385145811  0.7219225036402389  1.0000
  Cl  Cl20      1.0  0.1843914926270967  0.00628838526523668  0.7780774961865303  1.0000
  Cl  Cl21      1.0  0.26066871887129506  0.3830507134573761  0.14969604563694952  1.0000
  Cl  Cl22      1.0  0.7393312821568763  0.8830507133379504  0.3503039545755876  1.0000
  Cl  Cl23      1.0  0.7393312812385883  0.6169492867342111  0.8503039547779423  1.0000
  Cl  Cl24      1.0  0.26066871795300695  0.11694928642319814  0.6496960458393042  1.0000
  Br  Br1       1.0  0.034553872840867035  0.42747242622110804  0.5443037368976961  1.0000
  Br  Br2       1.0  0.9654461273310361  0.9274724261016823  0.9556962629290734  1.0000
  Br  Br3       1.0  0.9654461271493732  0.5725275739704793  0.45569626272587116  1.0000
  Br  Br4       1.0  0.0345538727788471  0.07252757408990496  0.044303737485818485  1.0000
  Br  Br5       1.0  0.0731493316768516  0.26498331508994544  0.5021497605271293  1.0000
  Br  Br6       1.0  0.9268506684950516  0.7649833154009584  0.99785023929964  1.0000
  Br  Br7       1.0  0.9268506683133885  0.735016684671203  0.4978502390964379  1.0000
  Br  Br8       1.0  0.0731493314951884  0.2350166847906288  0.002149760323927166  1.0000
  Br  Br9       1.0  0.48713361067511596  0.22522580711295662  0.5713017748200392  1.0000
  Br  Br10      1.0  0.5128663894967873  0.7252258074239696  0.92869822500673  1.0000
  Br  Br11      1.0  0.5128663894347674  0.7747741926481919  0.4286982255948526  1.0000
  Br  Br12      1.0  0.4871336104934528  0.2747741927676176  0.07130177461683704  1.0000
  Br  Br13      1.0  0.6968762281133418  0.3652520983114586  0.6487808760792702  1.0000
  Br  Br14      1.0  0.3031237721782046  0.8652520981920327  0.8512191245388239  1.0000
  Br  Br15      1.0  0.3031237719965414  0.6347479018801286  0.35121912433562175  1.0000
  Br  Br16      1.0  0.6968762279316788  0.13474790156911567  0.1487808758760679  1.0000
  Br  Br17      1.0  0.4145817423468368  0.4900718527099115  0.6394723580110849  1.0000
  Br  Br18      1.0  0.5854182579447097  0.9900718530209245  0.8605276426070091  1.0000
  Br  Br19      1.0  0.5854182577630466  0.5099281470512371  0.3605276424038068  1.0000
  Br  Br20      1.0  0.4145817421651736  0.009928147170662815  0.13947235780788275  1.0000
  Br  Br21      1.0  0.3691143704692249  0.3681970632397009  0.42782314131744287  1.0000
  Br  Br22      1.0  0.6308856294589952  0.8681970631202752  0.07217685889424676  1.0000
  Br  Br23      1.0  0.6308856295210151  0.6318029369518864  0.5721768583061243  1.0000
  Br  Br24      1.0  0.3691143706508881  0.13180293707131208  0.9278231415206449  1.0000
