data_image0
_chemical_formula_structural       H14C16N8O6
_chemical_formula_sum              "H14 C16 N8 O6"
_cell_length_a       4.202093125050198
_cell_length_b       9.139219562258901
_cell_length_c       11.620366287730125
_cell_angle_alpha    78.08686840733054
_cell_angle_beta     81.72877370390691
_cell_angle_gamma    87.0952997414151

_space_group_name_H-M_alt    "P 1"
_space_group_IT_number       1

loop_
  _space_group_symop_operation_xyz
  'x, y, z'

loop_
  _atom_site_type_symbol
  _atom_site_label
  _atom_site_symmetry_multiplicity
  _atom_site_fract_x
  _atom_site_fract_y
  _atom_site_fract_z
  _atom_site_occupancy
  H   H1        1.0  0.05887195243147907  0.13737404943135523  0.9693337941233308  1.0000
  H   H2        1.0  0.9411280483659167  0.86262595125575  0.030666205267911858  1.0000
  H   H3        1.0  0.5824384681937848  0.42763113280859766  0.09479944635783963  1.0000
  H   H4        1.0  0.4175615326611597  0.5723688667537382  0.9052005540687497  1.0000
  H   H5        1.0  0.5110877220050005  0.9781673998221783  0.27049832952570196  1.0000
  H   H6        1.0  0.4889122788651413  0.02183259974645203  0.7295016700385484  1.0000
  H   H7        1.0  0.473764136733998  0.2839077287231345  0.7649665225354518  1.0000
  H   H8        1.0  0.5262358641361438  0.7160922708454958  0.2350334770287986  1.0000
  H   H9        1.0  0.22506695303162783  0.5210648497354271  0.6733958056035311  1.0000
  H   H10       1.0  0.7749330478233166  0.4789351498269087  0.3266041948230583  1.0000
  H   H11       1.0  0.23305536886409217  0.06466411579267131  0.5132081608276183  1.0000
  H   H12       1.0  0.7669446319181062  0.9353358848881395  0.48679183942596344  1.0000
  H   H13       1.0  0.9781038074824291  0.2911121691898646  0.4070392371432613  1.0000
  H   H14       1.0  0.021896190983516046  0.7088878303692079  0.5929607625420265  1.0000
  C   C1        1.0  0.3068872670868727  0.30141576963720407  0.019253345163262426  1.0000
  C   C2        1.0  0.6931127337680716  0.6985842299251318  0.9807466552633269  1.0000
  C   C3        1.0  0.5594377768502982  0.21046700822614214  0.1979097101216176  1.0000
  C   C4        1.0  0.44056222161564673  0.7895329913329302  0.80209028956367  1.0000
  C   C5        1.0  0.2621382265397875  0.040737755359138775  0.12068627058528811  1.0000
  C   C6        1.0  0.7378617719261577  0.9592622441999336  0.8793137290999994  1.0000
  C   C7        1.0  0.0763026721310662  0.430188337236715  0.529769047091529  1.0000
  C   C8        1.0  0.9236973262469355  0.5698116634345379  0.47023095328308995  1.0000
  C   C9        1.0  0.08442927223034942  0.29760027216244495  0.4857683739951417  1.0000
  C   C10       1.0  0.9155707286397924  0.7023997274061854  0.5142316255691086  1.0000
  C   C11       1.0  0.21927806965813232  0.4240850807409829  0.6328839927809591  1.0000
  C   C12       1.0  0.7807219287926153  0.575914918811795  0.36711600776666764  1.0000
  C   C13       1.0  0.35983303566830244  0.2909091772396725  0.6855071749987739  1.0000
  C   C14       1.0  0.640166965186642  0.7090908223226633  0.3144928254278157  1.0000
  C   C15       1.0  0.22749812563668778  0.16905037725354297  0.5451450937613737  1.0000
  C   C16       1.0  0.7725018751455106  0.830949623427268  0.45485490649220806  1.0000
  N   N1        1.0  0.19022980589206176  0.15983773546038832  0.033504889620169204  1.0000
  N   N2        1.0  0.8097701925011371  0.8401622652171591  0.9664951098921106  1.0000
  N   N3        1.0  0.4833621695767702  0.3220569981191604  0.10496091064781334  1.0000
  N   N4        1.0  0.5166378288739774  0.6779430014336176  0.8950390898998134  1.0000
  N   N5        1.0  0.4413131978313436  0.0713211535069635  0.20164054522123767  1.0000
  N   N6        1.0  0.5586868029508547  0.9286788471738474  0.7983594550323441  1.0000
  N   N7        1.0  0.3643069946441074  0.16471050180729277  0.6432024764017703  1.0000
  N   N8        1.0  0.6356930061532883  0.8352894988798125  0.3567975229894723  1.0000
  O   O1        1.0  0.2535156723969079  0.40167244557903486  0.934011377806212  1.0000
  O   O2        1.0  0.7464843260538397  0.5983275539737432  0.06598862274141483  1.0000
  O   O3        1.0  0.727350638822029  0.23369967854255397  0.270720574423115  1.0000
  O   O4        1.0  0.2726493620329154  0.766300321019782  0.7292794260034744  1.0000
  O   O5        1.0  0.17074483001657345  0.9121296333262942  0.1243079221954646  1.0000
  O   O6        1.0  0.8292551684341742  0.08787036622648375  0.8756920783521621  1.0000
