data_image0
_chemical_formula_structural       H72C160N12S8Cl24
_chemical_formula_sum              "H72 C160 N12 S8 Cl24"
_cell_length_a       15.683106096425732
_cell_length_b       8.074830926747426
_cell_length_c       25.966949630298764
_cell_angle_alpha    90.0
_cell_angle_beta     92.87845975570971
_cell_angle_gamma    90.0

_space_group_name_H-M_alt    "P 1"
_space_group_IT_number       1

loop_
  _space_group_symop_operation_xyz
  'x, y, z'

loop_
  _atom_site_type_symbol
  _atom_site_label
  _atom_site_symmetry_multiplicity
  _atom_site_fract_x
  _atom_site_fract_y
  _atom_site_fract_z
  _atom_site_occupancy
  H   H1        1.0  0.49519756450905916  0.635954552681698  0.5932839958656909  1.0000
  H   H2        1.0  0.0048024355952316486  0.135954553099504  0.9067160040576034  1.0000
  H   H3        1.0  0.5048024356521386  0.364045447721106  0.4067160040478116  1.0000
  H   H4        1.0  0.9951975639283727  0.8640454473033  0.09328399585631864  1.0000
  H   H5        1.0  0.7657342814595555  0.543870448785852  0.2853998057572551  1.0000
  H   H6        1.0  0.7342657181209559  0.04387044920365805  0.2146001941468752  1.0000
  H   H7        1.0  0.2342657180640488  0.4561295503785359  0.714600194156667  1.0000
  H   H8        1.0  0.265734282040242  0.956129551199146  0.7853998057666274  1.0000
  H   H9        1.0  0.9413786162626177  0.20441389113578273  0.5764438543872114  1.0000
  H   H10       1.0  0.5586213836440052  0.7044138907179767  0.9235561452904567  1.0000
  H   H11       1.0  0.05862138389858016  0.7955861092670212  0.42355614552629123  1.0000
  H   H12       1.0  0.44137861651719273  0.29558610968482724  0.07644385462304587  1.0000
  H   H13       1.0  0.601304706839179  0.39763661172944736  0.6240294510136658  1.0000
  H   H14       1.0  0.8986952931001981  0.8976366125500573  0.8759705490495934  1.0000
  H   H15       1.0  0.39869529335477316  0.6023633874349406  0.375970549285428  1.0000
  H   H16       1.0  0.10130470642340615  0.1023633878527466  0.12402945086432866  1.0000
  H   H17       1.0  0.5956115372046794  0.8955433253774417  0.683625383751088  1.0000
  H   H18       1.0  0.9043884627346978  0.3955433245568318  0.8163746163121712  1.0000
  H   H19       1.0  0.4043884623516793  0.10445667502536218  0.3163746165484253  1.0000
  H   H20       1.0  0.09561153742650004  0.6044566746075561  0.18362538360133135  1.0000
  H   H21       1.0  0.8138932645902789  0.6770688599671048  0.20815904253924206  1.0000
  H   H22       1.0  0.6861067356605803  0.17706885914649478  0.29184095775005986  1.0000
  H   H23       1.0  0.1861067356036733  0.32293114043569915  0.7918409577598516  1.0000
  H   H24       1.0  0.31389326453337185  0.8229311400178932  0.7081590425490338  1.0000
  H   H25       1.0  0.9185397234410726  0.13038648976692466  0.32395431387133616  1.0000
  H   H26       1.0  0.5814602767770322  0.6303864893491187  0.1760456860323746  1.0000
  H   H27       1.0  0.08146027672012526  0.8696135106358793  0.6760456860421664  1.0000
  H   H28       1.0  0.4185397233841656  0.3696135098152693  0.8239543138811278  1.0000
  H   H29       1.0  0.8126432597319834  0.9292528348977411  0.3542247183905157  1.0000
  H   H30       1.0  0.687356739848528  0.42925283407713116  0.14577528151361455  1.0000
  H   H31       1.0  0.18735673979162096  0.07074716550506283  0.6457752815234064  1.0000
  H   H32       1.0  0.3126432596750764  0.5707471650872568  0.8542247184003077  1.0000
  H   H33       1.0  0.8107367319626794  0.5714785624444989  0.5956077561165543  1.0000
  H   H34       1.0  0.6892632679766978  0.07147856286230495  0.9043922439467049  1.0000
  H   H35       1.0  0.1892632681985185  0.428521437958305  0.4043922437969483  1.0000
  H   H36       1.0  0.31073673218450004  0.9285214375404991  0.0956077559667976  1.0000
  H   H37       1.0  0.6764529544999851  0.3037447040377788  0.7050638357019751  1.0000
  H   H38       1.0  0.8235470454393922  0.8037447036199727  0.7949361643612842  1.0000
  H   H39       1.0  0.3235470456612128  0.6962552963650251  0.2949361642115276  1.0000
  H   H40       1.0  0.17645295411696657  0.19625529554441518  0.20506383593822908  1.0000
  H   H41       1.0  0.9247036082843845  0.871106379045058  0.17973464709933723  1.0000
  H   H42       1.0  0.5752963912961269  0.37110637946286396  0.320265352804793  1.0000
  H   H43       1.0  0.07529639123921994  0.12889362011932998  0.820265352814585  1.0000
  H   H44       1.0  0.42470360886507097  0.62889362093994  0.6797346471087096  1.0000
  H   H45       1.0  0.7127088998412726  0.5048363683376857  0.7754284605742352  1.0000
  H   H46       1.0  0.7872911000981045  0.004836368755491782  0.7245715394890241  1.0000
  H   H47       1.0  0.28729110031992516  0.4951636308267022  0.22457153933926746  1.0000
  H   H48       1.0  0.21270890006309331  0.995163631647312  0.27542846042447844  1.0000
  H   H49       1.0  0.980642304106735  0.09383504334315584  0.23829860651602627  1.0000
  H   H50       1.0  0.5193576955065307  0.5938350441637659  0.26170139377369517  1.0000
  H   H51       1.0  0.01935769544962366  0.906164955821232  0.761701393783487  1.0000
  H   H52       1.0  0.48064230401707364  0.40616495623903814  0.7382986061402268  1.0000
  H   H53       1.0  0.03419836798726362  0.2895508563845293  0.6452425865242634  1.0000
  H   H54       1.0  0.46580163147943376  0.7895508559667234  0.8547574133994507  1.0000
  H   H55       1.0  0.9658016315363406  0.7104491440182746  0.35475741338965877  1.0000
  H   H56       1.0  0.5341983680441705  0.21044914443608065  0.14524258651447153  1.0000
  H   H57       1.0  0.826848491695667  0.7420079360613233  0.6739079772228692  1.0000
  H   H58       1.0  0.6731515082437102  0.2420079352407133  0.82609202284039  1.0000
  H   H59       1.0  0.1731515078279373  0.2579920643414807  0.32609202269105286  1.0000
  H   H60       1.0  0.32684849191748766  0.7579920639236747  0.1739079770731126  1.0000
  H   H61       1.0  0.6696443276035601  0.8018788986097285  0.7644255983383547  1.0000
  H   H62       1.0  0.8303556723358171  0.3018788977891186  0.7355744017249046  1.0000
  H   H63       1.0  0.33035567255763776  0.19812110179307538  0.23557440157514792  1.0000
  H   H64       1.0  0.16964432718778727  0.6981211013752693  0.2644255981890175  1.0000
  H   H65       1.0  0.9447234964726516  0.6853707885905196  0.7399764023105696  1.0000
  H   H66       1.0  0.5552765034667256  0.18537078900832565  0.7600235977526898  1.0000
  H   H67       1.0  0.05527650368854629  0.3146292118122843  0.26002359760293303  1.0000
  H   H68       1.0  0.444723496089633  0.8146292113944783  0.2399764025468236  1.0000
  H   H69       1.0  0.04817320683392268  0.45635687897732047  0.7241423990103601  1.0000
  H   H70       1.0  0.4518267932703682  0.9563568797979305  0.7758576009129343  1.0000
  H   H71       1.0  0.951826793327275  0.5436431201870675  0.2758576009031424  1.0000
  H   H72       1.0  0.5481732068908296  0.04364312060487346  0.22414239900056832  1.0000
  C   C1        1.0  0.6142160746199272  0.9550992992873141  0.5717315083933938  1.0000
  C   C2        1.0  0.8857839253194498  0.45509929970512014  0.9282684916698654  1.0000
  C   C3        1.0  0.38578392557402486  0.04490069987707382  0.42826849190569993  1.0000
  C   C4        1.0  0.11421607420415449  0.5449007006976838  0.07173150824405673  1.0000
  C   C5        1.0  0.767187488277191  0.21412516196131154  0.5631763387673339  1.0000
  C   C6        1.0  0.7328125122997796  0.7141251627819215  0.9368236612955059  1.0000
  C   C7        1.0  0.23281251188400684  0.7858748372030764  0.4368236611461687  1.0000
  C   C8        1.0  0.26718748789417246  0.28587483762088245  0.06317633900358796  1.0000
  C   C9        1.0  0.5399568633021028  0.8696569158790577  0.4171484290358807  1.0000
  C   C10       1.0  0.9600431362784084  0.36965691629686376  0.08285157086824961  1.0000
  C   C11       1.0  0.46004313622150145  0.13034308452374624  0.5828515708780414  1.0000
  C   C12       1.0  0.03995686324519581  0.6303430841059403  0.9171484290456725  1.0000
  C   C13       1.0  0.6826967435398197  0.22246401767369026  0.5417768403935108  1.0000
  C   C14       1.0  0.8173032563995575  0.7224640172558842  0.9582231596697485  1.0000
  C   C15       1.0  0.31730325662137815  0.7775359827291136  0.4582231595199917  1.0000
  C   C16       1.0  0.18269674376164038  0.27753598314691974  0.04177684024375421  1.0000
  C   C17       1.0  0.566428840946092  0.5691618563524823  0.4719998158460147  1.0000
  C   C18       1.0  0.9335711586344193  0.06916185677028831  0.028000184058115576  1.0000
  C   C19       1.0  0.4335711585775124  0.43083814405032167  0.5280001840679075  1.0000
  C   C20       1.0  0.06642884088918502  0.9308381436325157  0.9719998158558066  1.0000
  C   C21       1.0  0.4848481474419063  0.6454154331252682  0.4702738561632429  1.0000
  C   C22       1.0  0.015151852973866568  0.14541543354307412  0.02972614398609425  1.0000
  C   C23       1.0  0.5151518527192916  0.3545845672775359  0.5297261437502597  1.0000
  C   C24       1.0  0.9848481471873313  0.8545845668597298  0.9702738559274083  1.0000
  C   C25       1.0  0.5943715828205519  0.6530746907073848  0.6481106886149134  1.0000
  C   C26       1.0  0.905628417086071  0.15307469112519073  0.8518893110627546  1.0000
  C   C27       1.0  0.405628417340646  0.3469253084570032  0.351889311298589  1.0000
  C   C28       1.0  0.09437158307512687  0.8469253092776132  0.14811068885074805  1.0000
  C   C29       1.0  0.4705818177994066  0.7967285542400103  0.44214746361546403  1.0000
  C   C30       1.0  0.029418182583611955  0.29672855465781645  0.05785253614828193  1.0000
  C   C31       1.0  0.5294181823617913  0.20327144492437757  0.5578525362980385  1.0000
  C   C32       1.0  0.9705818175775859  0.7032714457449876  0.9421474637652206  1.0000
  C   C33       1.0  0.5810014985818593  0.4221128369028221  0.5009715479767481  1.0000
  C   C34       1.0  0.9189985013575177  0.9221128364850161  0.9990284520865111  1.0000
  C   C35       1.0  0.4189985015793385  0.5778871634999819  0.4990284519367545  1.0000
  C   C36       1.0  0.08100149880368004  0.07788716391778791  0.000971547826991407  1.0000
  C   C37       1.0  0.6552898767514507  0.7695596423469697  0.3593019813699795  1.0000
  C   C38       1.0  0.8447101234666542  0.26955964276477584  0.1406980185337312  1.0000
  C   C39       1.0  0.34471012340974716  0.23044035681741815  0.6406980185435232  1.0000
  C   C40       1.0  0.1552898766945437  0.7304403576380281  0.8593019813797714  1.0000
  C   C41       1.0  0.8094361781004109  0.7844564558024131  0.284006758692368  1.0000
  C   C42       1.0  0.6905638214801003  0.284456454981803  0.21599324121176225  1.0000
  C   C43       1.0  0.1905638214231935  0.21554354460039093  0.7159932412215542  1.0000
  C   C44       1.0  0.3094361786810974  0.7155435441825849  0.7840067587017403  1.0000
  C   C45       1.0  0.5342540929916433  0.03967079223156344  0.40607179230172313  1.0000
  C   C46       1.0  0.9657459072264615  0.5396707918137573  0.09392820760198757  1.0000
  C   C47       1.0  0.46574590716955455  0.9603292081712405  0.5939282076117794  1.0000
  C   C48       1.0  0.03425409293473628  0.46032920735063054  0.906071792311515  1.0000
  C   C49       1.0  0.665373176990503  0.3531555937046306  0.5059437975234229  1.0000
  C   C50       1.0  0.834626822948874  0.8531555932868246  0.9940562025398364  1.0000
  C   C51       1.0  0.3346268231706947  0.6468444066981733  0.49405620239007964  1.0000
  C   C52       1.0  0.16537317660748463  0.14684440711597938  0.005943797759676983  1.0000
  C   C53       1.0  0.6107829843535155  0.1242007874961132  0.558206576625121  1.0000
  C   C54       1.0  0.8892170155858616  0.6242007883167232  0.9417934234381382  1.0000
  C   C55       1.0  0.38921701517008883  0.8757992116682748  0.44179342328880117  1.0000
  C   C56       1.0  0.1107829845753362  0.37579921208608075  0.058206576475364265  1.0000
  C   C57       1.0  0.8160158911955441  0.40899568423908644  0.4996647077852248  1.0000
  C   C58       1.0  0.6839841084177215  0.9089956838212805  0.00033529250449665094  1.0000
  C   C59       1.0  0.18398410836081458  0.5910043161637175  0.5003352925142884  1.0000
  C   C60       1.0  0.31601589113863704  0.09100431658152355  0.9996647077950165  1.0000
  C   C61       1.0  0.6115120070037922  0.7630310722161231  0.40535180557146416  1.0000
  C   C62       1.0  0.8884879926094734  0.26303107263392916  0.0946481947182573  1.0000
  C   C63       1.0  0.3884879925525665  0.2369689281866808  0.5946481947280491  1.0000
  C   C64       1.0  0.11151200694688518  0.7369689277688748  0.9053518055812559  1.0000
  C   C65       1.0  0.7476744984675283  0.5431076637745155  0.38833402361709785  1.0000
  C   C66       1.0  0.7523255011129829  0.04310766419232147  0.11166597628703244  1.0000
  C   C67       1.0  0.25232550105607593  0.45689233662828854  0.6116659762968243  1.0000
  C   C68       1.0  0.24767449904821495  0.9568923362104825  0.8883340236264701  1.0000
  C   C69       1.0  0.7219800015607588  0.6581435336802353  0.3495063139275325  1.0000
  C   C70       1.0  0.7780199986573461  0.1581435328596253  0.15049368597617824  1.0000
  C   C71       1.0  0.278019998600439  0.3418564667225687  0.65049368598597  1.0000
  C   C72       1.0  0.22198000150385178  0.8418564663047626  0.8495063139373243  1.0000
  C   C73       1.0  0.731804946737808  0.42785886928677064  0.47881938911297484  1.0000
  C   C74       1.0  0.7681950534802968  0.9278588688689646  0.021180610790735875  1.0000
  C   C75       1.0  0.26819505342338984  0.5721411311160333  0.5211806108005277  1.0000
  C   C76       1.0  0.23180494668090104  0.07214113153383936  0.9788193891227667  1.0000
  C   C77       1.0  0.6303534268714756  0.6274407310768051  0.4388392312620523  1.0000
  C   C78       1.0  0.8696465727090358  0.127440730256195  0.061160768642077916  1.0000
  C   C79       1.0  0.3696465732897223  0.3725592693259989  0.5611607686514503  1.0000
  C   C80       1.0  0.13035342681456852  0.8725592689081929  0.9388392312718442  1.0000
  C   C81       1.0  0.8332328455524551  0.3105697237192991  0.5438343294329165  1.0000
  C   C82       1.0  0.666767154386922  0.8105697233014931  0.9561656706303426  1.0000
  C   C83       1.0  0.1667671539711491  0.6894302766835049  0.45616567048100554  1.0000
  C   C84       1.0  0.33323284580703016  0.1894302771013109  0.04383432966875109  1.0000
  C   C85       1.0  0.5423837142576051  0.8711509558297938  0.5896906900642374  1.0000
  C   C86       1.0  0.9576162856490178  0.3711509550091838  0.9103093096134307  1.0000
  C   C87       1.0  0.45761628526599935  0.12884904457301014  0.4103093098496848  1.0000
  C   C88       1.0  0.04238371451218004  0.628849044155204  0.08969069030007192  1.0000
  C   C89       1.0  0.70662079397807  0.5340338675966537  0.43510929350245087  1.0000
  C   C90       1.0  0.7933792062400348  0.034033868014459796  0.06489070640125982  1.0000
  C   C91       1.0  0.2933792061831278  0.4659661328061502  0.5648907064110517  1.0000
  C   C92       1.0  0.206620793921163  0.9659661323883442  0.9351092935122428  1.0000
  C   C93       1.0  0.6166366308415885  0.48590778749350866  0.6548016006852728  1.0000
  C   C94       1.0  0.8833633690650343  0.9859077870757026  0.8451983989923952  1.0000
  C   C95       1.0  0.38336336931960935  0.5140922129092952  0.34519839922822976  1.0000
  C   C96       1.0  0.11663663045856994  0.014092212088685298  0.15480160092152684  1.0000
  C   C97       1.0  0.61501731925994  0.7663643581070813  0.687749996435028  1.0000
  C   C98       1.0  0.8849826806794372  0.26636435728647134  0.812250003628231  1.0000
  C   C99       1.0  0.3849826809012579  0.23363564229572262  0.3122500034784744  1.0000
  C   C100      1.0  0.11501731884416709  0.7336356418779166  0.18774999628569103  1.0000
  C   C101      1.0  0.8383817992070195  0.7747269604466946  0.23374014977704516  1.0000
  C   C102      1.0  0.6616182010110854  0.2747269608645007  0.26625985012666553  1.0000
  C   C103      1.0  0.16161820095417828  0.2252730399561093  0.7662598501364574  1.0000
  C   C104      1.0  0.3383817991501125  0.7252730395383032  0.733740149786837  1.0000
  C   C105      1.0  0.9223114667554778  0.4199489092418576  0.614469774142418  1.0000
  C   C106      1.0  0.5776885331511449  0.9199489088240516  0.8855302255352502  1.0000
  C   C107      1.0  0.07768853276812639  0.5800510911609463  0.3855302257715041  1.0000
  C   C108      1.0  0.42231146701005295  0.08005109034033635  0.11446977437825255  1.0000
  C   C109      1.0  0.8964387408917535  0.02981159013529518  0.29870255376743543  1.0000
  C   C110      1.0  0.6035612587215122  0.5298115897174892  0.20129744652228604  1.0000
  C   C111      1.0  0.10356125866460521  0.9701884102675088  0.7012974465320777  1.0000
  C   C112      1.0  0.3964387408348464  0.47018840944689877  0.7987025537772273  1.0000
  C   C113      1.0  0.836226243601846  0.9177325441518555  0.3156659011124175  1.0000
  C   C114      1.0  0.6637737559786652  0.41773254456966147  0.18433409879171278  1.0000
  C   C115      1.0  0.1637737559217582  0.0822674550125325  0.6843340988015046  1.0000
  C   C116      1.0  0.33622624418253266  0.5822674558331424  0.8156659011217898  1.0000
  C   C117      1.0  0.8644407174934521  0.5488031824073155  0.6229244317434365  1.0000
  C   C118      1.0  0.6355592824459251  0.04880318282512151  0.8770755683198227  1.0000
  C   C119      1.0  0.13555928203015233  0.45119681675707246  0.3770755681704856  1.0000
  C   C120      1.0  0.36444071771527264  0.9511968175776825  0.12292443159367986  1.0000
  C   C121      1.0  0.6586898496106565  0.43365968671872984  0.7005019165272527  1.0000
  C   C122      1.0  0.8413101503287207  0.9336596863009238  0.7994980835360064  1.0000
  C   C123      1.0  0.3413101505505414  0.566340313684074  0.29949808338624984  1.0000
  C   C124      1.0  0.15868984922763787  0.06634031410188013  0.2005019167635068  1.0000
  C   C125      1.0  0.900157846220982  0.8850030031376196  0.21793131961214268  1.0000
  C   C126      1.0  0.5998421539971227  0.38500300231700957  0.28206868029156806  1.0000
  C   C127      1.0  0.0998421539402158  0.11499699726518438  0.7820686803013599  1.0000
  C   C128      1.0  0.40015784616407507  0.6149969968473784  0.7179313196219345  1.0000
  C   C129      1.0  0.679265257570384  0.5466320335425229  0.7399742401529393  1.0000
  C   C130      1.0  0.8207347423689931  0.04663203272191287  0.7600257599103198  1.0000
  C   C131      1.0  0.32073474259081386  0.4533679668602811  0.2600257597605632  1.0000
  C   C132      1.0  0.1792652571546111  0.9533679664424751  0.23997424000360226  1.0000
  C   C133      1.0  0.9308609760029265  0.01114122274709195  0.2505484446222915  1.0000
  C   C134      1.0  0.5691390236103391  0.5111412235677019  0.24945155566742996  1.0000
  C   C135      1.0  0.0691390241910256  0.988858776417296  0.7494515556768022  1.0000
  C   C136      1.0  0.4308609759132652  0.488858776835102  0.7505484442464921  1.0000
  C   C137      1.0  0.9891866216080929  0.38998872156800285  0.6512020857073147  1.0000
  C   C138      1.0  0.5108133783312844  0.8899887211501968  0.8487979143559444  1.0000
  C   C139      1.0  0.010813378585859318  0.6100112788348012  0.348797914591779  1.0000
  C   C140      1.0  0.48918662182991357  0.11001127925260719  0.15120208555755815  1.0000
  C   C141      1.0  0.8732182263928042  0.6443977734275548  0.6676498506799571  1.0000
  C   C142      1.0  0.6267817735465728  0.14439777260694478  0.832350149383302  1.0000
  C   C143      1.0  0.12678177376839364  0.3556022269752492  0.3323501492335454  1.0000
  C   C144      1.0  0.3732182260097857  0.8556022265574431  0.16764985091621123  1.0000
  C   C145      1.0  0.6567744786010898  0.7128981723854809  0.733441913711321  1.0000
  C   C146      1.0  0.8432255219758809  0.21289817156487104  0.7665580863515187  1.0000
  C   C147      1.0  0.343225521560108  0.2871018280173229  0.26655808620218163  1.0000
  C   C148      1.0  0.156774478185317  0.7871018275995169  0.23344191356198382  1.0000
  C   C149      1.0  0.939039365973899  0.6128992142246005  0.7045766181165758  1.0000
  C   C150      1.0  0.5609606339327238  0.11289921464240651  0.7954233815610922  1.0000
  C   C151      1.0  0.06096063418729879  0.3871007861782035  0.2954233817969267  1.0000
  C   C152      1.0  0.43903936622847406  0.8871007857603974  0.20457661835241042  1.0000
  C   C153      1.0  0.9968260867672191  0.48534894111753657  0.6957848695762527  1.0000
  C   C154      1.0  0.503173913172158  0.9853489419381466  0.8042151304870064  1.0000
  C   C155      1.0  0.0031739127563851213  0.5146510580468513  0.3042151303376694  1.0000
  C   C156      1.0  0.49682608698903985  0.014651058464657371  0.1957848694264961  1.0000
  C   C157      1.0  0.9156565829154634  0.04150147576340482  0.4454571170992415  1.0000
  C   C158      1.0  0.5843434166650481  0.5415014765840148  0.05454288280488878  1.0000
  C   C159      1.0  0.08434341660814094  0.9584985234009831  0.5545428828146806  1.0000
  C   C160      1.0  0.41565658349614987  0.45849852381878914  0.9454571171086138  1.0000
  N   N1        1.0  0.5487144413194545  0.703365505918741  0.6022078381140559  1.0000
  N   N2        1.0  0.9512855586199227  0.20336550509813106  0.8977921619492033  1.0000
  N   N3        1.0  0.4512855588417434  0.29663449448406287  0.3977921617994467  1.0000
  N   N4        1.0  0.04871444093643593  0.7966344940662569  0.10220783835030993  1.0000
  N   N5        1.0  0.7581491107764937  0.6572309127143164  0.30168219406831465  1.0000
  N   N6        1.0  0.7418508894743655  0.15723091189370636  0.19831780622098724  1.0000
  N   N7        1.0  0.24185088941745841  0.34276908768848763  0.6983178062307791  1.0000
  N   N8        1.0  0.25814911071958674  0.8427690872706816  0.8016821940781066  1.0000
  N   N9        1.0  0.9142255064394614  0.31803993461872376  0.570329872643512  1.0000
  N   N10       1.0  0.5857744934671613  0.8180399354393337  0.9296701270341561  1.0000
  N   N11       1.0  0.08577449308414278  0.6819600645456642  0.4296701272704102  1.0000
  N   N12       1.0  0.4142255066940365  0.1819600649634702  0.07032987287934646  1.0000
  S   S1        1.0  0.8296720887450275  0.9589841954894239  0.4583905488205947  1.0000
  S   S2        1.0  0.6703279108682382  0.45898419466881396  0.04160945146912676  1.0000
  S   S3        1.0  0.17032791081133117  0.04101580491338001  0.5416094514789186  1.0000
  S   S4        1.0  0.3296720886881205  0.5410158044955741  0.9583905488303864  1.0000
  S   S5        1.0  0.0012784483065668467  0.1256735291680915  0.43242425298899523  1.0000
  S   S6        1.0  0.49872155210920605  0.6256735287502854  0.06757574716034186  1.0000
  S   S7        1.0  0.9987215518546311  0.8743264712347124  0.5675757469245074  1.0000
  S   S8        1.0  0.5012784480519918  0.3743264704141025  0.9324242527531607  1.0000
  Cl  Cl1       1.0  0.6248161706159108  0.15137559424942168  0.39402210463525944  1.0000
  Cl  Cl2       1.0  0.8751838289646007  0.6513755950700317  0.10597789526887086  1.0000
  Cl  Cl3       1.0  0.37518382890769353  0.8486244049149663  0.6059778952786627  1.0000
  Cl  Cl4       1.0  0.1248161705590038  0.3486244053327723  0.8940221046450513  1.0000
  Cl  Cl5       1.0  0.7006561094357427  0.8340112655105069  0.5580882182380064  1.0000
  Cl  Cl6       1.0  0.7993438905036344  0.33401126592831293  0.9419117818252528  1.0000
  Cl  Cl7       1.0  0.29934389072545514  0.16598873489229707  0.44191178167549616  1.0000
  Cl  Cl8       1.0  0.20065610901996983  0.665988734474491  0.058088218088669284  1.0000
  Cl  Cl9       1.0  0.6160478447996905  0.885519194750523  0.3079473892352064  1.0000
  Cl  Cl10      1.0  0.8839521554511686  0.385519195168329  0.19205261105409552  1.0000
  Cl  Cl11      1.0  0.38395215539426153  0.11448080441386495  0.6920526110638874  1.0000
  Cl  Cl12      1.0  0.11604784471002931  0.614480805234475  0.8079473888594071  1.0000
  Cl  Cl13      1.0  0.7902566054084589  0.11209592104296855  0.6205545223814849  1.0000
  Cl  Cl14      1.0  0.7097433945309183  0.6120959218635785  0.8794454776817743  1.0000
  Cl  Cl15      1.0  0.2097433947527389  0.8879040781214194  0.3794454775320177  1.0000
  Cl  Cl16      1.0  0.29025660502544043  0.3879040785392254  0.12055452261773895  1.0000
  Cl  Cl17      1.0  0.8204399937029724  0.3944043496255381  0.3724377226745864  1.0000
  Cl  Cl18      1.0  0.6795600059102932  0.8944043492077322  0.12756227761513503  1.0000
  Cl  Cl19      1.0  0.17956000582063197  0.6055956507772658  0.6275622772393357  1.0000
  Cl  Cl20      1.0  0.32043999364606535  0.10559564995665584  0.8724377226843782  1.0000
  Cl  Cl21      1.0  0.8977718265803128  0.5281997850719098  0.47860465173903594  1.0000
  Cl  Cl22      1.0  0.602228173637792  0.028199785489715745  0.02139534816467482  1.0000
  Cl  Cl23      1.0  0.10222817358088498  0.4718002153308943  0.5213953481744666  1.0000
  Cl  Cl24      1.0  0.39777182652340587  0.9718002149130882  0.9786046517488276  1.0000
