data_image0
_chemical_formula_structural       H68C76N4O16Cl4
_chemical_formula_sum              "H68 C76 N4 O16 Cl4"
_cell_length_a       13.697513304304964
_cell_length_b       13.03482278501273
_cell_length_c       12.072886108969158
_cell_angle_alpha    90.0
_cell_angle_beta     90.0
_cell_angle_gamma    49.33418770293623

_space_group_name_H-M_alt    "P 1"
_space_group_IT_number       1

loop_
  _space_group_symop_operation_xyz
  'x, y, z'

loop_
  _atom_site_type_symbol
  _atom_site_label
  _atom_site_symmetry_multiplicity
  _atom_site_fract_x
  _atom_site_fract_y
  _atom_site_fract_z
  _atom_site_occupancy
  H   H1        1.0  0.3819034216433848  0.4692474009111879  0.8111906864361375  1.0000
  H   H2        1.0  0.11809657845451929  0.5307525985017625  0.31119068597929384  1.0000
  H   H3        1.0  0.6180965782288359  0.5307525992113266  0.1888093136492474  1.0000
  H   H4        1.0  0.8819034214177013  0.469247401620752  0.6888093132777887  1.0000
  H   H5        1.0  0.002850260380860885  0.3490216670886769  0.397779630044903  1.0000
  H   H6        1.0  0.49714973971704307  0.6509783323242736  0.8977796305017466  1.0000
  H   H7        1.0  0.9971497401018422  0.6509783320226906  0.6022203700404819  1.0000
  H   H8        1.0  0.5028502601551775  0.349021667798241  0.10222036958363828  1.0000
  H   H9        1.0  0.9977947032952165  0.2239039912131789  0.4526443951078244  1.0000
  H   H10       1.0  0.5022052969618029  0.7760960086077529  0.952644395564668  1.0000
  H   H11       1.0  0.0022052965770041504  0.7760960089093356  0.5473556049775605  1.0000
  H   H12       1.0  0.49779470291041744  0.2239039915147618  0.04735560452071689  1.0000
  H   H13       1.0  0.21627122502057713  0.008717442036140065  0.17292131733513508  1.0000
  H   H14       1.0  0.2837287752109337  0.9912825583650307  0.6729213177919787  1.0000
  H   H15       1.0  0.7837287755957326  0.9912825580634477  0.8270786819219476  1.0000
  H   H16       1.0  0.7162712246612868  0.008717441757483924  0.3270786822934062  1.0000
  H   H17       1.0  0.8257665836291687  0.2915274029374135  0.3098485296917462  1.0000
  H   H18       1.0  0.6742334166278506  0.7084725968835182  0.8098485301485898  1.0000
  H   H19       1.0  0.17423341698714104  0.7084725971621744  0.6901514695653364  1.0000
  H   H20       1.0  0.3257665832443698  0.29152740323899645  0.1901514699367951  1.0000
  H   H21       1.0  0.8316134288133689  0.4225297244783704  0.2818344378708404  1.0000
  H   H22       1.0  0.6683865714436505  0.5774702753425611  0.7818344374993818  1.0000
  H   H23       1.0  0.16838657105885163  0.5774702756441441  0.7181655622145445  1.0000
  H   H24       1.0  0.33161342842856995  0.4225297247799534  0.21816556175770088  1.0000
  H   H25       1.0  0.34542011967973635  0.008513670145299431  0.028055006644050938  1.0000
  H   H26       1.0  0.15457987980768517  0.9914863302787981  0.5280550062725922  1.0000
  H   H27       1.0  0.6545798801924841  0.9914863299772152  0.9719449934413339  1.0000
  H   H28       1.0  0.8454201200645353  0.008513669843716506  0.4719449938127927  1.0000
  H   H29       1.0  0.10211051161947418  0.4412626946892723  0.05765351745370119  1.0000
  H   H30       1.0  0.3978894886120367  0.5587373057118984  0.5576535179105448  1.0000
  H   H31       1.0  0.8978894889968357  0.5587373054103155  0.9423464826316836  1.0000
  H   H32       1.0  0.6021105112601839  0.44126269441061616  0.44234648217484007  1.0000
  H   H33       1.0  0.9729422054044224  0.44191974144245677  0.20443327699135716  1.0000
  H   H34       1.0  0.5270577942421145  0.5580802593896219  0.7044332774482008  1.0000
  H   H35       1.0  0.027057794467798036  0.5580802586800577  0.7955667222657254  1.0000
  H   H36       1.0  0.4729422056301059  0.44191974073289264  0.2955667226371841  1.0000
  H   H37       1.0  0.03996862279138343  0.12636579505924617  0.2819631850474451  1.0000
  H   H38       1.0  0.46003137744012745  0.8736342053419245  0.7819631846759864  1.0000
  H   H39       1.0  0.9600313770808372  0.8736342050632684  0.7180368150379398  1.0000
  H   H40       1.0  0.5399686231761823  0.12636579475766324  0.21803681540939854  1.0000
  H   H41       1.0  0.8500975559768597  0.31879983078025287  0.17005325416552763  1.0000
  H   H42       1.0  0.6499024442801599  0.6812001690406787  0.6700532537940689  1.0000
  H   H43       1.0  0.14990244389536087  0.6812001693422617  0.8299467459198573  1.0000
  H   H44       1.0  0.3500975562025431  0.31879983007068874  0.32994674629131604  1.0000
  H   H45       1.0  0.5300935234342125  0.3616781746201482  0.6443231543633103  1.0000
  H   H46       1.0  0.9699064762123245  0.6383218262119307  0.1443231547347691  1.0000
  H   H47       1.0  0.4699064764380082  0.6383218255023664  0.3556768457220746  1.0000
  H   H48       1.0  0.030093523659895895  0.361678173910584  0.8556768453506157  1.0000
  H   H49       1.0  0.6133926204146622  0.14021826615307606  0.5761136216494867  1.0000
  H   H50       1.0  0.8866073790982678  0.8597817336907825  0.07611362202094535  1.0000
  H   H51       1.0  0.38660737945755835  0.8597817339694385  0.42388637760759595  1.0000
  H   H52       1.0  0.11339262077395255  0.1402182664317322  0.9238863780644396  1.0000
  H   H53       1.0  0.6983350477797909  0.8669249075278908  0.4400450747276715  1.0000
  H   H54       1.0  0.8016649524772286  0.13307509229304101  0.9400450751845152  1.0000
  H   H55       1.0  0.30166495209242966  0.13307509259462394  0.5599549245294111  1.0000
  H   H56       1.0  0.19833504739499191  0.8669249078294736  0.05995492490086979  1.0000
  H   H57       1.0  0.14710895200733448  0.1726768035086004  0.4005550542224828  1.0000
  H   H58       1.0  0.3528910480905694  0.8273231959043501  0.9005550546793264  1.0000
  H   H59       1.0  0.852891047864886  0.8273231966139142  0.5994449458629021  1.0000
  H   H60       1.0  0.6471089523921334  0.1726768032070175  0.0994449454060585  1.0000
  H   H61       1.0  0.7622964370616014  0.802755554169296  0.30327682684589086  1.0000
  H   H62       1.0  0.737703563195418  0.19724444565163562  0.8032768264744321  1.0000
  H   H63       1.0  0.23770356342110152  0.19724444494207147  0.6967231732394941  1.0000
  H   H64       1.0  0.26229643742089176  0.8027555544479521  0.1967231736109528  1.0000
  H   H65       1.0  0.863142930634582  0.7802321718942555  0.4099777646641464  1.0000
  H   H66       1.0  0.636857069011955  0.21976782893782315  0.9099777651209902  1.0000
  H   H67       1.0  0.1368570692376385  0.21976782822825897  0.5900222354212384  1.0000
  H   H68       1.0  0.3631429308602655  0.7802321711846915  0.09002223496439483  1.0000
  C   C1        1.0  0.3881206686140509  0.12321463159066992  0.8664258534029315  1.0000
  C   C2        1.0  0.11187933148385312  0.8767853678222804  0.36642585377439024  1.0000
  C   C3        1.0  0.6118793312581695  0.8767853685318446  0.13357414668245338  1.0000
  C   C4        1.0  0.8881206683883675  0.1232146323002341  0.6335741463109946  1.0000
  C   C5        1.0  0.4373494092947866  0.1719827594133376  0.7922825738324404  1.0000
  C   C6        1.0  0.0626505909367242  0.8280172409878331  0.2922825733755967  1.0000
  C   C7        1.0  0.5626505905774338  0.828017240709177  0.2077174262529446  1.0000
  C   C8        1.0  0.9373494089354963  0.17198275913468147  0.7077174267097882  1.0000
  C   C9        1.0  0.519148033240558  0.11368535794996554  0.7010838604459184  1.0000
  C   C10       1.0  0.9808519670164615  0.8863146418709662  0.2010838599890748  1.0000
  C   C11       1.0  0.4808519666316627  0.8863146421725488  0.2989161396394665  1.0000
  C   C12       1.0  0.019148032855759025  0.11368535825154849  0.7989161400963102  1.0000
  C   C13       1.0  0.5498407110992118  0.18505814925868705  0.6476582914329864  1.0000
  C   C14       1.0  0.9501592885473251  0.8149418515733916  0.14765829180444512  1.0000
  C   C15       1.0  0.45015928877300865  0.8149418508638274  0.35234170782409613  1.0000
  C   C16       1.0  0.04984071132489542  0.18505814854912292  0.8523417082809398  1.0000
  C   C17       1.0  0.5011264430507217  0.31143834390668657  0.6864874931473747  1.0000
  C   C18       1.0  0.9988735565958152  0.6885616569253922  0.18648749351883345  1.0000
  C   C19       1.0  0.4988735568214987  0.688561656215828  0.3135125069380102  1.0000
  C   C20       1.0  0.0011264432764053025  0.3114383431971224  0.8135125065665515  1.0000
  C   C21       1.0  0.41783765921760746  0.37244773304004253  0.7776965810208974  1.0000
  C   C22       1.0  0.08216234026981409  0.6275522673840549  0.27769658139235615  1.0000
  C   C23       1.0  0.582162340654613  0.627552267082472  0.22230341906448747  1.0000
  C   C24       1.0  0.9178376596024065  0.3724477327384596  0.7223034186930287  1.0000
  C   C25       1.0  0.3853126236335304  0.30233796080296604  0.8271145639799815  1.0000
  C   C26       1.0  0.11468737646437363  0.6976620386099843  0.3271145643514402  1.0000
  C   C27       1.0  0.6146873768491726  0.6976620383084015  0.17288543610540344  1.0000
  C   C28       1.0  0.8853126234078469  0.30233796151253023  0.6728854357339448  1.0000
  C   C29       1.0  0.2929632754310528  0.3457878427397746  0.9198691017013363  1.0000
  C   C30       1.0  0.20703672405636878  0.6542121576843228  0.419869102072795  1.0000
  C   C31       1.0  0.7070367244411678  0.65421215738274  0.08013089838404865  1.0000
  C   C32       1.0  0.7929632758158518  0.34578784243819166  0.5801308980125899  1.0000
  C   C33       1.0  0.3019147312060389  0.2296913758066997  0.9460476357442609  1.0000
  C   C34       1.0  0.19808526828138268  0.7703086246173978  0.4460476361157195  1.0000
  C   C35       1.0  0.6980852686661816  0.7703086243158149  0.05395236351282174  1.0000
  C   C36       1.0  0.8019147315908379  0.22969137550511678  0.5539523639696654  1.0000
  C   C37       1.0  0.23134558617278397  0.22598169514530764  0.031128390229806322  1.0000
  C   C38       1.0  0.26865441392512013  0.7740183042676427  0.5311283898583475  1.0000
  C   C39       1.0  0.7686544136994367  0.774018304977207  0.9688716098555786  1.0000
  C   C40       1.0  0.7313455859471005  0.2259816958548718  0.46887160939873496  1.0000
  C   C41       1.0  0.12528196818046444  0.3476653953971977  0.0834398992012038  1.0000
  C   C42       1.0  0.3747180313069572  0.6523346050268998  0.5834398996580474  1.0000
  C   C43       1.0  0.8747180316917562  0.6523346047253169  0.9165601000558787  1.0000
  C   C44       1.0  0.6252819685652634  0.3476653950956148  0.4165601004273375  1.0000
  C   C45       1.0  0.053089777450039614  0.3480691591564144  0.1640236487055772  1.0000
  C   C46       1.0  0.44691022264786445  0.6519308402565359  0.6640236483341185  1.0000
  C   C47       1.0  0.9469102224221808  0.6519308409661002  0.8359763513798076  1.0000
  C   C48       1.0  0.5530897778348385  0.3480691588548315  0.3359763517512664  1.0000
  C   C49       1.0  0.08560149956751512  0.22562512960679132  0.193255475860628  1.0000
  C   C50       1.0  0.41439849991990657  0.774374870817306  0.6932554763174715  1.0000
  C   C51       1.0  0.9143985003047055  0.7743748705157233  0.8067445242247568  1.0000
  C   C52       1.0  0.585601499952314  0.22562512930520842  0.3067445237679133  1.0000
  C   C53       1.0  0.1909617881059423  0.10334623084135867  0.1463393462054992  1.0000
  C   C54       1.0  0.30903821199196163  0.8966537685715918  0.6463393458340405  1.0000
  C   C55       1.0  0.8090382117662783  0.8966537692811558  0.8536606538798858  1.0000
  C   C56       1.0  0.6909617878802587  0.10334623155092285  0.35366065425134446  1.0000
  C   C57       1.0  0.2635095700867043  0.1029347099440512  0.0658128638693704  1.0000
  C   C58       1.0  0.23649043014480656  0.8970652904571195  0.5658128634979116  1.0000
  C   C59       1.0  0.7364904297855162  0.8970652901784634  0.9341871362160146  1.0000
  C   C60       1.0  0.7635095704715033  0.10293470964246829  0.43418713658747327  1.0000
  C   C61       1.0  0.04241259030621663  0.244141242855598  0.39149672392656837  1.0000
  C   C62       1.0  0.457587409181205  0.7558587575684995  0.8914967235551097  1.0000
  C   C63       1.0  0.9575874095660039  0.7558587572669165  0.6085032761588166  1.0000
  C   C64       1.0  0.5424125906910157  0.24414124255401504  0.1085032765302753  1.0000
  C   C65       1.0  0.8685886164979945  0.32184155806624953  0.2577924608837168  1.0000
  C   C66       1.0  0.631411383759025  0.6781584417546821  0.7577924613405604  1.0000
  C   C67       1.0  0.13141138398470847  0.6781584410451179  0.7422075383733657  1.0000
  C   C68       1.0  0.36858861611319554  0.32184155836783246  0.24220753874482442  1.0000
  C   C69       1.0  0.8203264846493055  0.6496557842352725  0.4239934539096775  1.0000
  C   C70       1.0  0.6796735156077138  0.3503442155856591  0.9239934535382188  1.0000
  C   C71       1.0  0.17967351522291497  0.350344215887242  0.5760065461757075  1.0000
  C   C72       1.0  0.3203264842645066  0.6496557845368555  0.07600654654716615  1.0000
  C   C73       1.0  0.7820875902355217  0.7841489187981652  0.3921936070019209  1.0000
  C   C74       1.0  0.717912410021498  0.21585108102276637  0.8921936066304622  1.0000
  C   C75       1.0  0.21791240963669892  0.21585108132434935  0.607806393083464  1.0000
  C   C76       1.0  0.2820875904612051  0.7841489180886011  0.10780639262662035  1.0000
  N   N1        1.0  0.011183398665378687  0.22305737411463736  0.2789166094674208  1.0000
  N   N2        1.0  0.48881660143252537  0.7769426252983129  0.778916609095962  1.0000
  N   N3        1.0  0.9888166012068417  0.7769426260078773  0.7210833906179641  1.0000
  N   N4        1.0  0.5111833990501775  0.2230573738130545  0.22108339098942284  1.0000
  O   O1        1.0  0.41541780321502425  0.011064864637894242  0.8595475900572426  1.0000
  O   O2        1.0  0.08458219701648663  0.9889351357632764  0.35954758960039895  1.0000
  O   O3        1.0  0.5845821966571962  0.9889351354846203  0.14045241002814232  1.0000
  O   O4        1.0  0.9154178028557339  0.011064864359238102  0.6404524096566836  1.0000
  O   O5        1.0  0.22126488162173383  0.4600950024748291  0.9616880450296362  1.0000
  O   O6        1.0  0.27873511860977707  0.5399049979263416  0.46168804540109487  1.0000
  O   O7        1.0  0.7787351182504866  0.5399049976476856  0.03831195505574877  1.0000
  O   O8        1.0  0.7212648820065327  0.4600950021732461  0.53831195468429  1.0000
  O   O9        1.0  0.8177806869133438  0.6266499156697216  0.5255882920394582  1.0000
  O   O10       1.0  0.6822193133436758  0.37335008415121  0.02558829158261458  1.0000
  O   O11       1.0  0.1822193129588767  0.37335008445279294  0.4744117080459267  1.0000
  O   O12       1.0  0.31778068652854485  0.6266499159713046  0.9744117076744679  1.0000
  O   O13       1.0  0.8554618486014414  0.5643110231639438  0.34780486389915355  1.0000
  O   O14       1.0  0.6445381516555782  0.43568897665698786  0.8478048635276948  1.0000
  O   O15       1.0  0.1445381518812617  0.4356889759474237  0.6521951361862314  1.0000
  O   O16       1.0  0.35546184821664234  0.5643110234655268  0.15219513655769004  1.0000
  Cl  Cl1       1.0  0.5848072466012991  0.9559043520197718  0.6506558737569937  1.0000
  Cl  Cl2       1.0  0.915192753045238  0.04409564881230691  0.1506558741284525  1.0000
  Cl  Cl3       1.0  0.4151927532709214  0.044095648102742746  0.3493441263283911  1.0000
  Cl  Cl4       1.0  0.08480724682698261  0.9559043513102076  0.8493441259569324  1.0000
