data_image0
_chemical_formula_structural       H80C56N64O16
_chemical_formula_sum              "H80 C56 N64 O16"
_cell_length_a       14.252649312365511
_cell_length_b       7.326355953430952
_cell_length_c       18.77431670901529
_cell_angle_alpha    90.0
_cell_angle_beta     92.01502021820434
_cell_angle_gamma    90.0

_space_group_name_H-M_alt    "P 1"
_space_group_IT_number       1

loop_
  _space_group_symop_operation_xyz
  'x, y, z'

loop_
  _atom_site_type_symbol
  _atom_site_label
  _atom_site_symmetry_multiplicity
  _atom_site_fract_x
  _atom_site_fract_y
  _atom_site_fract_z
  _atom_site_occupancy
  H   H1        1.0  0.9084266909926147  0.8456404124206727  0.6500298338489948  1.0000
  H   H2        1.0  0.4084266913523427  0.34564041333729145  0.6500298338692877  1.0000
  H   H3        1.0  0.09157330861133646  0.8456404124206727  0.8499701659452492  1.0000
  H   H4        1.0  0.5915733089536658  0.34564041333729145  0.8499701659428556  1.0000
  H   H5        1.0  0.09157330897120282  0.1543595871110248  0.3499701658346816  1.0000
  H   H6        1.0  0.591573308611475  0.654359587559341  0.34997016581438867  1.0000
  H   H7        1.0  0.9084266913535894  0.1543595871110248  0.15002983427109864  1.0000
  H   H8        1.0  0.40842669101126006  0.654359587559341  0.15002983427349237  1.0000
  H   H9        1.0  0.6573956272266703  0.10433015060400502  0.5305894898578394  1.0000
  H   H10       1.0  0.15739562758639827  0.6043301496873862  0.5305894898781323  1.0000
  H   H11       1.0  0.3426043730804464  0.10433015060400502  0.9694105104869755  1.0000
  H   H12       1.0  0.8426043727207183  0.6043301496873862  0.9694105104666824  1.0000
  H   H13       1.0  0.34260437273825545  0.8956698502926274  0.46941051035850845  1.0000
  H   H14       1.0  0.8426043730805847  0.39566984984431114  0.4694105103561147  1.0000
  H   H15       1.0  0.6573956275865368  0.8956698502926274  0.03058948974727173  1.0000
  H   H16       1.0  0.15739562724420744  0.39566984984431114  0.030589489749665456  1.0000
  H   H17       1.0  0.5521069149900198  0.1537067523278936  0.5744522773347949  1.0000
  H   H18       1.0  0.05210691534974774  0.6537067527762097  0.5744522773550879  1.0000
  H   H19       1.0  0.44789308461393146  0.1537067523278936  0.9255477224594492  1.0000
  H   H20       1.0  0.9478930849573689  0.6537067527762097  0.925547722989727  1.0000
  H   H21       1.0  0.44789308497490604  0.8462932485687388  0.4255477228815529  1.0000
  H   H22       1.0  0.9478930846151783  0.3462932481204226  0.42554772286126  1.0000
  H   H23       1.0  0.5521069153498862  0.8462932485687388  0.07445227722422729  1.0000
  H   H24       1.0  0.0521069150075569  0.3462932481204226  0.074452277226621  1.0000
  H   H25       1.0  0.531500647632982  0.9774511497283191  0.8128913781026211  1.0000
  H   H26       1.0  0.03150064799270992  0.47745115064493804  0.8128913781229141  1.0000
  H   H27       1.0  0.46849935197207754  0.9774511497283191  0.6871086222242944  1.0000
  H   H28       1.0  0.9684993523144069  0.47745115064493804  0.6871086222219006  1.0000
  H   H29       1.0  0.4684993523319439  0.022548849803378172  0.1871086221137267  1.0000
  H   H30       1.0  0.9684993519722159  0.5225488502516944  0.18710862209343376  1.0000
  H   H31       1.0  0.5315006479928484  0.022548849803378172  0.3128913779920535  1.0000
  H   H32       1.0  0.03150064765051908  0.5225488502516944  0.3128913779944472  1.0000
  H   H33       1.0  0.9013946109436108  0.7954584048391506  0.7404611108211858  1.0000
  H   H34       1.0  0.40139461130333876  0.2954584057557696  0.7404611108414788  1.0000
  H   H35       1.0  0.09860538936350592  0.7954584048391506  0.7595388895236288  1.0000
  H   H36       1.0  0.598605389003778  0.2954584057557696  0.7595388895033359  1.0000
  H   H37       1.0  0.09860538902131506  0.20454159469254665  0.259538889395162  1.0000
  H   H38       1.0  0.5986053893636444  0.7045415951408628  0.2595388893927683  1.0000
  H   H39       1.0  0.9013946113034772  0.20454159469254665  0.24046111071061818  1.0000
  H   H40       1.0  0.4013946109611479  0.7045415951408628  0.24046111071301196  1.0000
  H   H41       1.0  0.6366040075685152  0.9067355889102049  0.8594410711977197  1.0000
  H   H42       1.0  0.13660400722618585  0.4067355898268238  0.8594410712001135  1.0000
  H   H43       1.0  0.3633959927374933  0.9067355889102049  0.6405589286144235  1.0000
  H   H44       1.0  0.8633959923777654  0.4067355898268238  0.6405589285941305  1.0000
  H   H45       1.0  0.36339599239530246  0.09326441062149245  0.14055892848595666  1.0000
  H   H46       1.0  0.8633959927376318  0.5932644110698087  0.14055892848356294  1.0000
  H   H47       1.0  0.6366040072274326  0.09326441062149245  0.35944107160192434  1.0000
  H   H48       1.0  0.1366040075871605  0.5932644110698087  0.3594410716222173  1.0000
  H   H49       1.0  0.9479123370807081  0.8767314775351553  0.3259332056474834  1.0000
  H   H50       1.0  0.4479123367383789  0.37673147708683913  0.32593320564987716  1.0000
  H   H51       1.0  0.05208766324408406  0.8767314775351553  0.1740667944582968  1.0000
  H   H52       1.0  0.5520876628843562  0.37673147708683913  0.17406679443800388  1.0000
  H   H53       1.0  0.052087662884217706  0.12326852336147709  0.6740667945688645  1.0000
  H   H54       1.0  0.552087663226547  0.6232685224448582  0.6740667945664708  1.0000
  H   H55       1.0  0.947912337422899  0.12326852336147709  0.8259332057759503  1.0000
  H   H56       1.0  0.44791233707946143  0.6232685224448582  0.8259332052456726  1.0000
  H   H57       1.0  0.7999259808455804  0.9520150746611871  0.5531345840448391  1.0000
  H   H58       1.0  0.299925980503251  0.4520150742128709  0.5531345840472328  1.0000
  H   H59       1.0  0.20007401946153644  0.9520150746611871  0.9468654162999756  1.0000
  H   H60       1.0  0.7000740198038657  0.4520150742128709  0.9468654162975819  1.0000
  H   H61       1.0  0.2000740198214028  0.04798492487051029  0.44686541618940806  1.0000
  H   H62       1.0  0.7000740194616749  0.5479849253188265  0.44686541616911507  1.0000
  H   H63       1.0  0.7999259805033895  0.04798492487051029  0.053134583916372206  1.0000
  H   H64       1.0  0.29992598086311734  0.5479849253188265  0.05313458393666515  1.0000
  H   H65       1.0  0.026044164505497826  0.7397026249403178  0.435578945621829  1.0000
  H   H66       1.0  0.5260441641457699  0.2397026258569367  0.43557894560153604  1.0000
  H   H67       1.0  0.9739558358192945  0.7397026249403178  0.06442105448395119  1.0000
  H   H68       1.0  0.4739558354769652  0.2397026258569367  0.0644210544863449  1.0000
  H   H69       1.0  0.9739558354594281  0.2602973745913795  0.5644210545945189  1.0000
  H   H70       1.0  0.47395583581915596  0.7602973750396957  0.5644210546148118  1.0000
  H   H71       1.0  0.026044164145631477  0.2602973745913795  0.9355789457323966  1.0000
  H   H72       1.0  0.5260441644879608  0.7602973750396957  0.9355789457300029  1.0000
  H   H73       1.0  0.8013334899135732  0.03196925886331185  0.3334990906999003  1.0000
  H   H74       1.0  0.30133348957124395  0.5319692593116281  0.3334990907022941  1.0000
  H   H75       1.0  0.19866651041121894  0.03196925886331185  0.1665009094058799  1.0000
  H   H76       1.0  0.6986665100514912  0.5319692593116281  0.16650090938558695  1.0000
  H   H77       1.0  0.1986665100502443  0.9680307406683855  0.6665009089837761  1.0000
  H   H78       1.0  0.6986665103925737  0.4680307402200693  0.6665009089813824  1.0000
  H   H79       1.0  0.8013334895537069  0.9680307406683855  0.833499090810468  1.0000
  H   H80       1.0  0.30133348991343484  0.4680307402200693  0.8334990908307609  1.0000
  C   C1        1.0  0.7879498608759309  0.9214872991310805  0.696446874387624  1.0000
  C   C2        1.0  0.28794986053360166  0.4214872986827643  0.6964468743900177  1.0000
  C   C3        1.0  0.2120501394300775  0.9214872991310805  0.8035531254245192  1.0000
  C   C4        1.0  0.7120501390703498  0.4214872986827643  0.8035531254042263  1.0000
  C   C5        1.0  0.21205013908788667  0.0785127017655519  0.30355312529605244  1.0000
  C   C6        1.0  0.712050139430216  0.5785127008489331  0.3035531252936587  1.0000
  C   C7        1.0  0.7879498605348484  0.0785127017655519  0.19644687479182857  1.0000
  C   C8        1.0  0.28794986089457625  0.5785127008489331  0.1964468748121215  1.0000
  C   C9        1.0  0.6585446392890424  0.03539928603640214  0.6361006151238149  1.0000
  C   C10       1.0  0.1585446389467132  0.5353992864847184  0.6361006151262085  1.0000
  C   C11       1.0  0.3414553610180742  0.03539928603640214  0.8638993852209998  1.0000
  C   C12       1.0  0.8414553606583465  0.5353992864847184  0.863899385200707  1.0000
  C   C13       1.0  0.3414553606758834  0.9646007134952953  0.363899385092533  1.0000
  C   C14       1.0  0.8414553610182127  0.464600713046979  0.3638993850901393  1.0000
  C   C15       1.0  0.6585446389468517  0.9646007134952953  0.13610061499534795  1.0000
  C   C16       1.0  0.1585446393065795  0.464600713046979  0.1361006150156409  1.0000
  C   C17       1.0  0.6499789849222537  0.9573774540281904  0.7538519096218823  1.0000
  C   C18       1.0  0.14997898528198156  0.4573774535798742  0.7538519096421753  1.0000
  C   C19       1.0  0.35002101468169755  0.9573774540281904  0.7461480901723617  1.0000
  C   C20       1.0  0.8500210150240268  0.4573774535798742  0.746148090169968  1.0000
  C   C21       1.0  0.35002101504156397  0.042622545503506984  0.24614809006179408  1.0000
  C   C22       1.0  0.850021014681836  0.5426225459518231  0.24614809004150112  1.0000
  C   C23       1.0  0.6499789852832283  0.042622545503506984  0.25385191004398616  1.0000
  C   C24       1.0  0.14997898494089906  0.5426225459518231  0.25385191004637986  1.0000
  C   C25       1.0  0.9176652365577473  0.8858181654360926  0.3783574805554863  1.0000
  C   C26       1.0  0.4176652369174751  0.3858181663527113  0.37835748057577917  1.0000
  C   C27       1.0  0.08233476306498778  0.8858181654360926  0.12164251953239473  1.0000
  C   C28       1.0  0.5823347634073172  0.3858181663527113  0.12164251953000099  1.0000
  C   C29       1.0  0.08233476340717864  0.11418183409560487  0.6216425196608616  1.0000
  C   C30       1.0  0.5823347630474508  0.6141818345439211  0.6216425196405687  1.0000
  C   C31       1.0  0.9176652368988298  0.11418183409560487  0.8783574801512816  1.0000
  C   C32       1.0  0.4176652365565005  0.6141818345439211  0.8783574801536753  1.0000
  C   C33       1.0  0.9152087982234749  0.831710434045515  0.5047314572649407  1.0000
  C   C34       1.0  0.415208798583203  0.33171043496213387  0.5047314572852337  1.0000
  C   C35       1.0  0.08479120138047622  0.831710434045515  0.9952685425293033  1.0000
  C   C36       1.0  0.5847912017228055  0.33171043496213387  0.9952685425269095  1.0000
  C   C37       1.0  0.08479120174145086  0.16828956548618235  0.4952685429514071  1.0000
  C   C38       1.0  0.5847912013817229  0.6682895659344986  0.49526854293111416  1.0000
  C   C39       1.0  0.9152087985833414  0.16828956548618235  0.004731457154373096  1.0000
  C   C40       1.0  0.4152087982410121  0.6682895659344986  0.004731457156766815  1.0000
  C   C41       1.0  0.9598171274862847  0.8119457883034271  0.43786088769704307  1.0000
  C   C42       1.0  0.4598171278460126  0.3119457892200459  0.43786088771733583  1.0000
  C   C43       1.0  0.04018287213534205  0.8119457883034271  0.06213911185816653  1.0000
  C   C44       1.0  0.5401828724787796  0.3119457892200459  0.06213911238844427  1.0000
  C   C45       1.0  0.04018287247753289  0.18805421122827032  0.5621391119866334  1.0000
  C   C46       1.0  0.540182872117805  0.6880542116765865  0.5621391119663405  1.0000
  C   C47       1.0  0.9598171278284756  0.18805421122827032  0.9378608878255099  1.0000
  C   C48       1.0  0.4598171274861462  0.6880542116765865  0.9378608878279037  1.0000
  C   C49       1.0  0.7888511365646144  0.0023322317545871117  0.44301974201877387  1.0000
  C   C50       1.0  0.28885113622228503  0.5023322308379683  0.4430197420211676  1.0000
  C   C51       1.0  0.21114886376017783  0.0023322317545871117  0.05698025808700634  1.0000
  C   C52       1.0  0.7111488634004499  0.5023322308379683  0.0569802580667134  1.0000
  C   C53       1.0  0.21114886340031153  0.9976677691420454  0.556980258197574  1.0000
  C   C54       1.0  0.7111488637426407  0.49766776869372914  0.5569802581951803  1.0000
  C   C55       1.0  0.788851136204748  0.9976677691420454  0.9430197421293416  1.0000
  C   C56       1.0  0.28885113656447586  0.49766776869372914  0.9430197421496345  1.0000
  N   N1        1.0  0.6193781200337961  0.10185491733452301  0.5760868314868272  1.0000
  N   N2        1.0  0.1193781196914668  0.6018549177828392  0.5760868314892209  1.0000
  N   N3        1.0  0.38062188027221233  0.10185491733452301  0.9239131683253161  1.0000
  N   N4        1.0  0.8806218799124845  0.6018549177828392  0.923913168305023  1.0000
  N   N5        1.0  0.3806218799311298  0.8981450821971744  0.42391316872952073  1.0000
  N   N6        1.0  0.8806218802734591  0.3981450817488582  0.423913168727127  1.0000
  N   N7        1.0  0.6193781196916053  0.8981450821971744  0.07608683135836027  1.0000
  N   N8        1.0  0.11937812005133316  0.3981450817488582  0.07608683137865323  1.0000
  N   N9        1.0  0.6057148825197813  0.02691947828546886  0.6948624570117309  1.0000
  N   N10       1.0  0.10571488217745205  0.52691947736885  0.6948624570141246  1.0000
  N   N11       1.0  0.3942851177862271  0.02691947828546886  0.8051375428004123  1.0000
  N   N12       1.0  0.8942851174264993  0.52691947736885  0.8051375427801195  1.0000
  N   N13       1.0  0.3942851174440362  0.9730805226111635  0.3051375426719455  1.0000
  N   N14       1.0  0.8942851177863657  0.4730805221628474  0.3051375426695518  1.0000
  N   N15       1.0  0.6057148821786988  0.9730805226111635  0.1948624574159355  1.0000
  N   N16       1.0  0.10571488253842666  0.4730805221628474  0.19486245743622846  1.0000
  N   N17       1.0  0.7489124596495657  0.9769275688343001  0.6338426711908755  1.0000
  N   N18       1.0  0.24891246000929362  0.4769275697509189  0.6338426712111684  1.0000
  N   N19       1.0  0.2510875399554939  0.9769275688343001  0.86615732913604  1.0000
  N   N20       1.0  0.7510875402978232  0.4769275697509189  0.8661573291336463  1.0000
  N   N21       1.0  0.2510875403153602  0.023072430697397332  0.36615732902547243  1.0000
  N   N22       1.0  0.7510875399556323  0.5230724311457136  0.36615732900517944  1.0000
  N   N23       1.0  0.748912460009432  0.023072430697397332  0.1338426710803078  1.0000
  N   N24       1.0  0.2489124596671028  0.5230724311457136  0.1338426710827015  1.0000
  N   N25       1.0  0.7421652095769269  0.9106083286706466  0.7580718288863326  1.0000
  N   N26       1.0  0.24216520993665483  0.41060832822233034  0.7580718289066256  1.0000
  N   N27       1.0  0.25783479002813264  0.9106083286706466  0.7419281714405829  1.0000
  N   N28       1.0  0.7578347903704619  0.41060832822233034  0.7419281714381892  1.0000
  N   N29       1.0  0.25783479038799895  0.08939167086105085  0.2419281713300152  1.0000
  N   N30       1.0  0.757834790028271  0.5893916713093671  0.2419281713097223  1.0000
  N   N31       1.0  0.7421652099367932  0.08939167086105085  0.258071828775765  1.0000
  N   N32       1.0  0.24216520959446397  0.5893916713093671  0.25807182877815865  1.0000
  N   N33       1.0  0.8800897895456874  0.8755480938645953  0.6985128409432814  1.0000
  N   N34       1.0  0.38008978920224984  0.37554809341627915  0.6985128404130035  1.0000
  N   N35       1.0  0.11991021076142933  0.8755480938645953  0.8014871594015335  1.0000
  N   N36       1.0  0.6199102104017014  0.37554809341627915  0.8014871593812405  1.0000
  N   N37       1.0  0.11991021041923847  0.12445190566710201  0.3014871592730665  1.0000
  N   N38       1.0  0.6199102107615677  0.6244519061154182  0.3014871592706728  1.0000
  N   N39       1.0  0.8800897892034966  0.12445190566710201  0.19851284081481446  1.0000
  N   N40       1.0  0.38008978956322453  0.6244519061154182  0.1985128408351074  1.0000
  N   N41       1.0  0.6002120466773819  0.9333948518837072  0.8124701425106218  1.0000
  N   N42       1.0  0.1002120470371099  0.433394851435391  0.8124701425309148  1.0000
  N   N43       1.0  0.3997879529265692  0.9333948518837072  0.6875298572836224  1.0000
  N   N44       1.0  0.8997879532688986  0.433394851435391  0.6875298572812286  1.0000
  N   N45       1.0  0.3997879532864356  0.06660514901292516  0.18752985717305465  1.0000
  N   N46       1.0  0.899787952927816  0.5666051480963062  0.1875298576854332  1.0000
  N   N47       1.0  0.6002120470372483  0.06660514901292516  0.3124701424000541  1.0000
  N   N48       1.0  0.10021204669491904  0.5666051480963062  0.3124701424024478  1.0000
  N   N49       1.0  0.8322814284072347  0.9307191260351946  0.5031109735121275  1.0000
  N   N50       1.0  0.33228142876696254  0.4307191269518134  0.5031109735324204  1.0000
  N   N51       1.0  0.16771857119671657  0.9307191260351946  0.9968890262821164  1.0000
  N   N52       1.0  0.6677185715390458  0.4307191269518134  0.9968890262797229  1.0000
  N   N53       1.0  0.1677185715565829  0.0692808734965028  0.4968890261715489  1.0000
  N   N54       1.0  0.6677185711968551  0.5692808739448191  0.496889026151256  1.0000
  N   N55       1.0  0.832281428767101  0.0692808734965028  0.0031109734015598548  1.0000
  N   N56       1.0  0.3322814284247717  0.5692808739448191  0.0031109734039535698  1.0000
  N   N57       1.0  0.8345739167955427  0.9766797880806022  0.3806592650240448  1.0000
  N   N58       1.0  0.33457391645321344  0.47667978763228597  0.3806592650264385  1.0000
  N   N59       1.0  0.16542608352924953  0.9766797880806022  0.11934073508173547  1.0000
  N   N60       1.0  0.6654260831695217  0.47667978763228597  0.11934073506144252  1.0000
  N   N61       1.0  0.16542608316938318  0.023320211451095203  0.619340735192303  1.0000
  N   N62       1.0  0.6654260835117124  0.5233202118994114  0.6193407351899094  1.0000
  N   N63       1.0  0.8345739164356765  0.023320211451095203  0.8806592651346123  1.0000
  N   N64       1.0  0.33457391679540427  0.5233202118994114  0.8806592651549052  1.0000
  O   O1        1.0  0.7123546358761597  0.08546770235846436  0.4447415974831628  1.0000
  O   O2        1.0  0.21235463623588763  0.5854677028067806  0.4447415975034557  1.0000
  O   O3        1.0  0.2876453637465754  0.08546770235846436  0.05525840260471822  1.0000
  O   O4        1.0  0.7876453640889046  0.5854677028067806  0.05525840260232449  1.0000
  O   O5        1.0  0.2876453640876579  0.914532297173233  0.5552584022005137  1.0000
  O   O6        1.0  0.78764536372793  0.41453229808985187  0.5552584021802207  1.0000
  O   O7        1.0  0.7123546362183506  0.914532297173233  0.9447415976116297  1.0000
  O   O8        1.0  0.21235463587602124  0.41453229808985187  0.9447415976140232  1.0000
  O   O9        1.0  0.9455359120301605  0.7682789555650885  0.5633710266229062  1.0000
  O   O10       1.0  0.44553591238988854  0.26827895511677236  0.563371026643199  1.0000
  O   O11       1.0  0.05446408757489895  0.7682789555650885  0.9366289737040092  1.0000
  O   O12       1.0  0.5544640879172282  0.26827895511677236  0.9366289737016157  1.0000
  O   O13       1.0  0.0544640879347653  0.23172104533154386  0.43662897359344166  1.0000
  O   O14       1.0  0.5544640875750374  0.731721044414925  0.4366289735731488  1.0000
  O   O15       1.0  0.9455359123900269  0.23172104533154386  0.06337102651233852  1.0000
  O   O16       1.0  0.44553591204769766  0.731721044414925  0.06337102651473224  1.0000
