data_image0
_chemical_formula_structural       H14C4N16O2
_chemical_formula_sum              "H14 C4 N16 O2"
_cell_length_a       6.572582976123893
_cell_length_b       7.744735475680755
_cell_length_c       7.805396496395468
_cell_angle_alpha    111.51260007486266
_cell_angle_beta     97.68018329850517
_cell_angle_gamma    109.4134894410594

_space_group_name_H-M_alt    "P 1"
_space_group_IT_number       1

loop_
  _space_group_symop_operation_xyz
  'x, y, z'

loop_
  _atom_site_type_symbol
  _atom_site_label
  _atom_site_symmetry_multiplicity
  _atom_site_fract_x
  _atom_site_fract_y
  _atom_site_fract_z
  _atom_site_occupancy
  H   H1        1.0  0.5723030550201125  0.8117706736377787  0.9574781729371019  1.0000
  H   H2        1.0  0.42769694426800375  0.18822932690449926  0.04252182719366491  1.0000
  H   H3        1.0  0.3484672719557649  0.45788791201291623  0.6761284511572144  1.0000
  H   H4        1.0  0.6515327281553634  0.5421120869978036  0.32387154841440385  1.0000
  H   H5        1.0  0.8705828678032802  0.18146609938993002  0.7605789484717058  1.0000
  H   H6        1.0  0.12941713077751058  0.818533899628856  0.23942105098114275  1.0000
  H   H7        1.0  0.7927399658901243  0.962056111117994  0.5567067147939653  1.0000
  H   H8        1.0  0.20726003422100414  0.03794388789272577  0.4432932847776531  1.0000
  H   H9        1.0  0.912524757938803  0.9775039294480942  0.7701048131000964  1.0000
  H   H10       1.0  0.0874752421723254  0.02249606956262572  0.2298951864715219  1.0000
  H   H11       1.0  0.5096917184798403  0.03895883883434864  0.7251187179550062  1.0000
  H   H12       1.0  0.490308281631288  0.9610411601763711  0.27488128161661196  1.0000
  H   H13       1.0  0.4897923983822268  0.8087709294525486  0.6222711913993465  1.0000
  H   H14       1.0  0.5102076017289014  0.19122906955817112  0.37772880817227167  1.0000
  C   C1        1.0  0.5382153548906944  0.6716894991523982  0.9740819638801311  1.0000
  C   C2        1.0  0.46178464439742184  0.3283105013898797  0.02591803625063584  1.0000
  C   C3        1.0  0.4181716559874598  0.4823584538000486  0.8221785287977255  1.0000
  C   C4        1.0  0.581828344830994  0.5176415467341631  0.1778214714518111  1.0000
  N   N1        1.0  0.6200503141520978  0.6894854199530905  0.1526473990754347  1.0000
  N   N2        1.0  0.3799496866663561  0.3105145805811212  0.8473526011741019  1.0000
  N   N3        1.0  0.10616194712757619  0.5613118685814233  0.24576593330298901  1.0000
  N   N4        1.0  0.8938380529835521  0.4386881304292964  0.7542340662686292  1.0000
  N   N5        1.0  0.9976561193410012  0.3635360932432294  0.12695477165155453  1.0000
  N   N6        1.0  0.0023438799471150284  0.6364639072990487  0.8730452284792124  1.0000
  N   N7        1.0  0.05419947243291923  0.26207163906004677  0.21593911242085062  1.0000
  N   N8        1.0  0.945800527678209  0.737928359950673  0.7840608871507675  1.0000
  N   N9        1.0  0.19772193458652879  0.3964652126903327  0.3886798333871204  1.0000
  N   N10       1.0  0.8022780655245996  0.603534786320387  0.6113201661844978  1.0000
  N   N11       1.0  0.22947453323595327  0.5810440994383477  0.40711397002069855  1.0000
  N   N12       1.0  0.770525467618601  0.41895590104316616  0.592886031493139  1.0000
  N   N13       1.0  0.8056935848612611  0.022531306360529166  0.7035626495565093  1.0000
  N   N14       1.0  0.1943064159571926  0.9774686941736827  0.29643735069302746  1.0000
  N   N15       1.0  0.5892930188080061  0.9481752706174175  0.7379403073822208  1.0000
  N   N16       1.0  0.41070698201044764  0.051824729916794245  0.2620596928673158  1.0000
  O   O1        1.0  0.7315156674488739  0.8704912409887982  0.2978783052618901  1.0000
  O   O2        1.0  0.2684843326622544  0.12950875802192158  0.7021216943097283  1.0000
