data_image0
_chemical_formula_structural       H36C48N8O16S4
_chemical_formula_sum              "H36 C48 N8 O16 S4"
_cell_length_a       6.527235738348171
_cell_length_b       13.90246721555659
_cell_length_c       13.159263733541833
_cell_angle_alpha    90.0
_cell_angle_beta     104.04530858294983
_cell_angle_gamma    90.0

_space_group_name_H-M_alt    "P 1"
_space_group_IT_number       1

loop_
  _space_group_symop_operation_xyz
  'x, y, z'

loop_
  _atom_site_type_symbol
  _atom_site_label
  _atom_site_symmetry_multiplicity
  _atom_site_fract_x
  _atom_site_fract_y
  _atom_site_fract_z
  _atom_site_occupancy
  H   H1        1.0  0.7087840028132583  0.13279509466738112  0.7465155749766861  1.0000
  H   H2        1.0  0.7912159971856824  0.6327950948271877  0.7534844251040613  1.0000
  H   H3        1.0  0.291215997713658  0.8672049049329351  0.25348442488793355  1.0000
  H   H4        1.0  0.2087840033412341  0.3672049047731286  0.24651557476055844  1.0000
  H   H5        1.0  0.6032180090258316  0.04872194981636444  0.5735940009468632  1.0000
  H   H6        1.0  0.896781990973109  0.548721949976171  0.9264059991338841  1.0000
  H   H7        1.0  0.3967819915010848  0.9512780505032488  0.42640599891775643  1.0000
  H   H8        1.0  0.10321800797455614  0.4512780503434421  0.07359400053888772  1.0000
  H   H9        1.0  0.012819476014319028  0.24360051043388953  0.7858749469114809  1.0000
  H   H10       1.0  0.4871805238756522  0.7436005105936961  0.7141250537315416  1.0000
  H   H11       1.0  0.9871805229297294  0.7563994891664267  0.21412505352077457  1.0000
  H   H12       1.0  0.5128194766476475  0.25639948972591703  0.2858749468925616  1.0000
  H   H13       1.0  0.21681331023443154  0.27783662497530004  0.6493879299168157  1.0000
  H   H14       1.0  0.28318668965915633  0.7778366244158098  0.8506120699667232  1.0000
  H   H15       1.0  0.7831866887132336  0.7221633753443131  0.3506120697559561  1.0000
  H   H16       1.0  0.7168133108677601  0.22216337518450652  0.14938792989789645  1.0000
  H   H17       1.0  0.9524781052660948  0.11404375176126064  0.27626551606794236  1.0000
  H   H18       1.0  0.5475218943112821  0.6140437519210672  0.22373448434539378  1.0000
  H   H19       1.0  0.04752189526082153  0.8859562485583525  0.7237344837966773  1.0000
  H   H20       1.0  0.45247810463276633  0.3859562483985459  0.7762655160868617  1.0000
  H   H21       1.0  0.9227155666129431  0.4870283241828832  0.31309994803896773  1.0000
  H   H22       1.0  0.5772844329680505  0.9870283243426897  0.18690005161488485  1.0000
  H   H23       1.0  0.07728443233472204  0.5129716754174332  0.6869000516338042  1.0000
  H   H24       1.0  0.42271556755886586  0.012971675257626573  0.8130999482497349  1.0000
  H   H25       1.0  0.19801731176102688  0.5582744393250684  0.23911097347970103  1.0000
  H   H26       1.0  0.30198268771099734  0.058274439165261864  0.26088902673642667  1.0000
  H   H27       1.0  0.8019826871830215  0.4417255609945447  0.7608890269525543  1.0000
  H   H28       1.0  0.6980173128159189  0.9417255604350544  0.739110973128193  1.0000
  H   H29       1.0  0.28170008609794045  0.5792093126455625  0.6195939683678766  1.0000
  H   H30       1.0  0.21829991379203076  0.079209312485756  0.8804060322751459  1.0000
  H   H31       1.0  0.718299912846108  0.42079068767405053  0.3804060320643789  1.0000
  H   H32       1.0  0.7817000867312689  0.9207906878338571  0.11959396834895732  1.0000
  H   H33       1.0  0.5506065037227462  0.6439734481072518  0.5310544158672289  1.0000
  H   H34       1.0  0.9493934962761943  0.1439734479474452  0.9689455842135185  1.0000
  H   H35       1.0  0.4493934952213022  0.3560265522123614  0.46894558456502644  1.0000
  H   H36       1.0  0.050606504250722  0.8560265523721678  0.03105441565110123  1.0000
  C   C1        1.0  0.8093886458409536  0.0797660136726748  0.40680740208525423  1.0000
  C   C2        1.0  0.6906113553192912  0.5797660138324814  0.09319259776044621  1.0000
  C   C3        1.0  0.19061135468596282  0.9202339866469383  0.5931925977793655  1.0000
  C   C4        1.0  0.3093886452076251  0.4202339864871317  0.9068074021041735  1.0000
  C   C5        1.0  0.8499625350508855  0.11766015086657491  0.5157725799538638  1.0000
  C   C6        1.0  0.6500374649480551  0.6176601510263815  0.9842274201268835  1.0000
  C   C7        1.0  0.1500374654760308  0.8823398487337414  0.48422741991075574  1.0000
  C   C8        1.0  0.34996253557524465  0.3823398485739349  0.015772580497219753  1.0000
  C   C9        1.0  0.7984403020459866  0.14423976326706395  0.6877167725708496  1.0000
  C   C10       1.0  0.7015596979529539  0.6442397634268704  0.8122832275098977  1.0000
  C   C11       1.0  0.20155969848092964  0.8557602370525491  0.31228322729377  1.0000
  C   C12       1.0  0.2984403009910946  0.3557602368927426  0.18771677292235772  1.0000
  C   C13       1.0  0.7379446484927585  0.09746062400232422  0.5908494119738469  1.0000
  C   C14       1.0  0.7620553515061821  0.597460623442834  0.9091505881069004  1.0000
  C   C15       1.0  0.26205535203415786  0.9025393763172889  0.4091505878907727  1.0000
  C   C16       1.0  0.23794464744148308  0.40253937615748236  0.09084941156587142  1.0000
  C   C17       1.0  0.9701377736525157  0.20779122332814978  0.7098680551094666  1.0000
  C   C18       1.0  0.5298622263464248  0.7077912234879564  0.7901319449712808  1.0000
  C   C19       1.0  0.029862225295149317  0.7922087769914633  0.29013194456330527  1.0000
  C   C20       1.0  0.47013777418049163  0.2922087768316568  0.2098680548933389  1.0000
  C   C21       1.0  0.018003627411847727  0.18285302893255023  0.5388276380577538  1.0000
  C   C22       1.0  0.48199637248174015  0.6828530290923568  0.9611723618257851  1.0000
  C   C23       1.0  0.9819963715358174  0.8171469706677661  0.46117236161501796  1.0000
  C   C24       1.0  0.5180036280451762  0.31714697050795954  0.03882763803883459  1.0000
  C   C25       1.0  0.08411781509543552  0.228170821107957  0.6349834373470584  1.0000
  C   C26       1.0  0.4158821847981523  0.7281708205484668  0.8650165625364804  1.0000
  C   C27       1.0  0.9158821838486129  0.7718291792116561  0.365016563085197  1.0000
  C   C28       1.0  0.5841178157287639  0.2718291790518495  0.13498343732813925  1.0000
  C   C29       1.0  0.07789135112301208  0.5223799169886587  0.4758304995769844  1.0000
  C   C30       1.0  0.4221086483490121  0.022379916828852136  0.024169500639143266  1.0000
  C   C31       1.0  0.9221086478246532  0.4776200833309544  0.5241695000957874  1.0000
  C   C32       1.0  0.5778913521742876  0.9776200827714642  0.97583049998496  1.0000
  C   C33       1.0  0.05728554335896744  0.5196061395431093  0.3671838024653994  1.0000
  C   C34       1.0  0.442714457692308  0.019606139383302797  0.13281619794257613  1.0000
  C   C35       1.0  0.9427144571679489  0.48039386077650376  0.6328161973992202  1.0000
  C   C36       1.0  0.5572855428309916  0.9803938609363103  0.8671838026815271  1.0000
  C   C37       1.0  0.20924521404913882  0.5586083757356363  0.32284181377792925  1.0000
  C   C38       1.0  0.2907547870021366  0.0586083755758297  0.17715818663004632  1.0000
  C   C39       1.0  0.7907547864777774  0.44139162458397685  0.6771581860866904  1.0000
  C   C40       1.0  0.709245213521163  0.9413916247437834  0.8228418139940571  1.0000
  C   C41       1.0  0.2561314611749605  0.5708753027030431  0.5353488523083666  1.0000
  C   C42       1.0  0.24386853871862738  0.07087530326253329  0.9646511475751722  1.0000
  C   C43       1.0  0.7438685393519558  0.4291246968972733  0.464651147556253  1.0000
  C   C44       1.0  0.7561314618082889  0.9291246970570798  0.03534885228944742  1.0000
  C   C45       1.0  0.4068577155419556  0.608223146215236  0.4891217203497495  1.0000
  C   C46       1.0  0.09314228393368534  0.1082231467747262  0.010878279106894661  1.0000
  C   C47       1.0  0.5931422849849607  0.39177685338508034  0.5108782795148701  1.0000
  C   C48       1.0  0.9068577150139797  0.8917768535448869  0.9891217205658772  1.0000
  N   N1        1.0  0.9459515110505542  0.12378953126206671  0.35560573790732575  1.0000
  N   N2        1.0  0.5540484885268228  0.6237895314218733  0.1443942625060104  1.0000
  N   N3        1.0  0.054048487897110926  0.8762104683382496  0.6443942617654461  1.0000
  N   N4        1.0  0.4459515119964769  0.37621046889773985  0.8556057381180928  1.0000
  N   N5        1.0  0.3863911557070067  0.5995117550555086  0.38387773239877865  1.0000
  N   N6        1.0  0.11360884534788541  0.099511754895702  0.1161222672497133  1.0000
  N   N7        1.0  0.6136088448199096  0.40048824526410454  0.6161222674658411  1.0000
  N   N8        1.0  0.8863911551790308  0.9004882447046143  0.8838777326149063  1.0000
  O   O1        1.0  0.0691966576995314  0.2990192169162809  0.38663136810436416  1.0000
  O   O2        1.0  0.43080334335536075  0.7990192170760875  0.11336863154412782  1.0000
  O   O3        1.0  0.9308033428273849  0.7009807826840354  0.6133686317602556  1.0000
  O   O4        1.0  0.5691966571715557  0.2009807832435256  0.8866313683204918  1.0000
  O   O5        1.0  0.6777303155590562  0.01885080654653483  0.3667101871915451  1.0000
  O   O6        1.0  0.8222696855975719  0.5188508067063414  0.13328981341363888  1.0000
  O   O7        1.0  0.3222696849678601  0.9811491930537815  0.6332898126730745  1.0000
  O   O8        1.0  0.17773031492572777  0.48114919289397495  0.8667101872104643  1.0000
  O   O9        1.0  0.3298675078955719  0.16879774601259862  0.43699387464821215  1.0000
  O   O10       1.0  0.17013249157645235  0.6687977461724051  0.06300612556791556  1.0000
  O   O11       1.0  0.6701324910520933  0.8312022543070144  0.5630061250245597  1.0000
  O   O12       1.0  0.8298675089468474  0.33120225414720794  0.9369938750561878  1.0000
  O   O13       1.0  0.5398866531151179  0.6295887330132126  0.3434569453756592  1.0000
  O   O14       1.0  0.9601133464658758  0.12958873285340614  0.15654305427819343  1.0000
  O   O15       1.0  0.4601133474117985  0.3704112665871036  0.6565430544889604  1.0000
  O   O16       1.0  0.039886654061040604  0.8704112667469103  0.8434569455864263  1.0000
  S   S1        1.0  0.1157542612321602  0.2022311699360796  0.4266599828360507  1.0000
  S   S2        1.0  0.38424573981911525  0.7022311700958861  0.07334001757192486  1.0000
  S   S3        1.0  0.8842457392911395  0.7977688296642367  0.5733400177880525  1.0000
  S   S4        1.0  0.6157542607078011  0.2977688295044302  0.9266599822926948  1.0000
