data_image0
_chemical_formula_structural       H96B24C50N4O4
_chemical_formula_sum              "H96 B24 C50 N4 O4"
_cell_length_a       11.339963095419884
_cell_length_b       11.947625240510343
_cell_length_c       12.288943721028835
_cell_angle_alpha    77.68554964752731
_cell_angle_beta     69.82057413737962
_cell_angle_gamma    88.28008291279052

_space_group_name_H-M_alt    "P 1"
_space_group_IT_number       1

loop_
  _space_group_symop_operation_xyz
  'x, y, z'

loop_
  _atom_site_type_symbol
  _atom_site_label
  _atom_site_symmetry_multiplicity
  _atom_site_fract_x
  _atom_site_fract_y
  _atom_site_fract_z
  _atom_site_occupancy
  H   H1        1.0  0.004235716135701463  0.07161339382454936  0.09751676875339381  1.0000
  H   H2        1.0  0.9957642834895818  0.9283866061106076  0.9024832314964789  1.0000
  H   H3        1.0  0.0027745059253528586  0.22809788226780794  0.13507043435567018  1.0000
  H   H4        1.0  0.9972254936999302  0.771902117667349  0.8649295658942027  1.0000
  H   H5        1.0  0.022078314653693535  0.40509204521083664  0.20019511504014706  1.0000
  H   H6        1.0  0.9779216849715895  0.5949079547243203  0.7998048852097257  1.0000
  H   H7        1.0  0.9802541019045421  0.40113099380784034  0.41264000353561625  1.0000
  H   H8        1.0  0.019745897720741035  0.5988690061273165  0.5873599967142564  1.0000
  H   H9        1.0  0.9134827951249807  0.21718644066296125  0.5629793654841825  1.0000
  H   H10       1.0  0.0865172045003026  0.7828135592721959  0.4370206347656902  1.0000
  H   H11       1.0  0.8904911924184644  0.03763126551175218  0.49927964389290197  1.0000
  H   H12       1.0  0.10950880806128509  0.9623687352660363  0.5007203563487593  1.0000
  H   H13       1.0  0.6802191770382803  0.9789801444567655  0.30883147000706473  1.0000
  H   H14       1.0  0.31978082291299853  0.021019855656472297  0.6911685293548675  1.0000
  H   H15       1.0  0.692234524442585  0.9925863578761289  0.16001082884573364  1.0000
  H   H16       1.0  0.3077654751826981  0.00741364205902803  0.8399891714041389  1.0000
  H   H17       1.0  0.5189734246603648  0.8199276514199699  0.37386171055070244  1.0000
  H   H18       1.0  0.481026575290914  0.180072348693268  0.6261382888112298  1.0000
  H   H19       1.0  0.5354730043533732  0.8219742288662153  0.22577452227272868  1.0000
  H   H20       1.0  0.46452699527190994  0.1780257710689416  0.7742254779771439  1.0000
  H   H21       1.0  0.44786428616007407  0.010035108523439553  0.449190183458131  1.0000
  H   H22       1.0  0.5521357134652091  0.9899648914117173  0.5508098167917417  1.0000
  H   H23       1.0  0.2925822869072261  0.1598684685280374  0.45333140488827  1.0000
  H   H24       1.0  0.7074177139258954  0.8401315315888658  0.5466685944733152  1.0000
  H   H25       1.0  0.19124543976984532  0.19907230105512416  0.29912480423776444  1.0000
  H   H26       1.0  0.8087545598554376  0.8009276988800327  0.7008751960121082  1.0000
  H   H27       1.0  0.24637651356769882  0.08471960103107516  0.14210257281870511  1.0000
  H   H28       1.0  0.7536234860575842  0.915280398904082  0.8578974274311675  1.0000
  H   H29       1.0  0.4069183150937047  0.9386434986155238  0.13517686870568768  1.0000
  H   H30       1.0  0.5930816848575742  0.061356501497714155  0.8648231306562445  1.0000
  H   H31       1.0  0.6857746484651331  0.6850670434847286  0.4257251632259939  1.0000
  H   H32       1.0  0.31422535116014993  0.31493295645042824  0.5742748370238787  1.0000
  H   H33       1.0  0.9558272188353713  0.6304269305086162  0.4155545922222226  1.0000
  H   H34       1.0  0.0441727819977501  0.3695730696082869  0.5844454071393627  1.0000
  H   H35       1.0  0.12893355132608114  0.8207434604817824  0.2268075664092426  1.0000
  H   H36       1.0  0.8710664482992022  0.1792565394533746  0.77319243384063  1.0000
  H   H37       1.0  0.11432648611675225  0.8057174294199351  0.9862260432147141  1.0000
  H   H38       1.0  0.8856735138345266  0.19428257069330282  0.01377395614721815  1.0000
  H   H39       1.0  0.8414794526096148  0.8580257771784994  0.9992229116546099  1.0000
  H   H40       1.0  0.1585205482235068  0.14197422293840362  0.0007770877069753397  1.0000
  H   H41       1.0  0.6708413365417658  0.6729894024831657  0.1834910413189706  1.0000
  H   H42       1.0  0.32915866396536  0.32701059745565664  0.8165089589305551  1.0000
  H   H43       1.0  0.8249080240553145  0.504405800181116  0.29407881256861595  1.0000
  H   H44       1.0  0.17509197589596445  0.4955941999321217  0.7059211867933162  1.0000
  H   H45       1.0  0.10029546946496139  0.5841017651671043  0.17053820329923042  1.0000
  H   H46       1.0  0.8997045301603219  0.41589823476805265  0.8294617969506421  1.0000
  H   H47       1.0  0.9259816491757664  0.611390044387496  0.029581543002579827  1.0000
  H   H48       1.0  0.07401835044951675  0.388609955547661  0.9704184572472928  1.0000
  H   H49       1.0  0.5438605264158549  0.3870401121729016  0.21644739250958145  1.0000
  H   H50       1.0  0.45613947320942827  0.6129598877622553  0.7835526077402912  1.0000
  H   H51       1.0  0.470161428353982  0.24044549735614326  0.15735240426530778  1.0000
  H   H52       1.0  0.5298385712713011  0.7595545025790136  0.8426475959845648  1.0000
  H   H53       1.0  0.5074470887343371  0.37123201168868114  0.050744627331957906  1.0000
  H   H54       1.0  0.49255291089094605  0.6287679882464758  0.9492553729179148  1.0000
  H   H55       1.0  0.707931808151097  0.2897333427344695  0.9307157597993326  1.0000
  H   H56       1.0  0.2920681914741861  0.7102666572006873  0.06928424045053999  1.0000
  H   H57       1.0  0.5705949259541853  0.20658457434375807  0.9555013863847308  1.0000
  H   H58       1.0  0.42940507367109787  0.7934154255913987  0.04449861386514197  1.0000
  H   H59       1.0  0.6695045611211091  0.1587800693394312  0.03885141174308973  1.0000
  H   H60       1.0  0.33049543850417407  0.8412199305957256  0.961148588506783  1.0000
  H   H61       1.0  0.5908825578891934  0.17214320459645369  0.2611844204056595  1.0000
  H   H62       1.0  0.4091174417360898  0.8278567953387033  0.7388155798442133  1.0000
  H   H63       1.0  0.7492625038867453  0.22678594904410418  0.1931933714031711  1.0000
  H   H64       1.0  0.2507374966203805  0.7732140508947181  0.8068066288463547  1.0000
  H   H65       1.0  0.7024790776094447  0.35800710930691865  0.34253900629910117  1.0000
  H   H66       1.0  0.29752092201583835  0.6419928906282384  0.6574609939507715  1.0000
  H   H67       1.0  0.6821660767402888  0.21030938229290352  0.4103995935665654  1.0000
  H   H68       1.0  0.317833923766837  0.7896906176459186  0.5896004066829603  1.0000
  H   H69       1.0  0.5479576497551839  0.2912748305099183  0.41152963564544554  1.0000
  H   H70       1.0  0.45204234987009934  0.7087251694252384  0.5884703646044271  1.0000
  H   H71       1.0  0.7554886267564008  0.4575817805491652  0.15167580365263633  1.0000
  H   H72       1.0  0.2445113728688822  0.5424182193859917  0.8483241965972363  1.0000
  H   H73       1.0  0.7964599164280826  0.3824008177825645  0.03464954829456315  1.0000
  H   H74       1.0  0.2035400831972004  0.6175991821525925  0.9653504519553096  1.0000
  H   H75       1.0  0.660511404295763  0.502718816073839  0.9404724062167649  1.0000
  H   H76       1.0  0.3394885962113627  0.4972811838649831  0.05952759403276091  1.0000
  H   H77       1.0  0.7587330826883536  0.5938386409735429  0.9732586396370294  1.0000
  H   H78       1.0  0.24126691693692953  0.4061613589616141  0.026741360612843282  1.0000
  H   H79       1.0  0.5994500664033967  0.5677235483449321  0.0663724947030126  1.0000
  H   H80       1.0  0.4005499335478821  0.43227645176830576  0.9336275046589195  1.0000
  H   H81       1.0  0.46642282270227925  0.41787257934163224  0.6804525353801125  1.0000
  H   H82       1.0  0.5335771781308422  0.5821274207752708  0.3195474639814727  1.0000
  H   H83       1.0  0.5579501772456211  0.5265711217767476  0.5561660222886604  1.0000
  H   H84       1.0  0.442049822379662  0.47342887815840945  0.4438339779612122  1.0000
  H   H85       1.0  0.6992362712879089  0.37501793562064395  0.5220057907260238  1.0000
  H   H86       1.0  0.30076372954521274  0.6249820644962591  0.47799420863556147  1.0000
  H   H87       1.0  0.6503600840311319  0.3077854003705523  0.6744388497013935  1.0000
  H   H88       1.0  0.34963991647599396  0.69221459956827  0.3255611505481323  1.0000
  H   H89       1.0  0.8500238596612297  0.49292510789282157  0.5430755281366368  1.0000
  H   H90       1.0  0.14997614084589617  0.5070748920460008  0.4569244721128889  1.0000
  H   H91       1.0  0.816164541498164  0.4093441898593996  0.688732136011156  1.0000
  H   H92       1.0  0.18383545812711927  0.5906558100757574  0.31126786423871655  1.0000
  H   H93       1.0  0.7289989915866618  0.5797976004853352  0.7513937723637553  1.0000
  H   H94       1.0  0.27100100803862137  0.4202023994498217  0.24860622788611728  1.0000
  H   H95       1.0  0.7252475474692475  0.6406566711062764  0.6064195323723373  1.0000
  H   H96       1.0  0.2747524524820316  0.35934332900696125  0.3935804669895948  1.0000
  B   B1        1.0  0.8875834792987624  0.8193843285993797  0.305824874163559  1.0000
  B   B2        1.0  0.11241652150698275  0.18061567235648937  0.6941751251901618  1.0000
  B   B3        1.0  0.9430836066335476  0.8810774728719217  0.1560135729483586  1.0000
  B   B4        1.0  0.05691639331773117  0.1189225272413161  0.8439864264135738  1.0000
  B   B5        1.0  0.7803924859449396  0.8359943461915005  0.22637232766403342  1.0000
  B   B6        1.0  0.21960751368034345  0.16400565374365658  0.7736276725858392  1.0000
  B   B7        1.0  0.7746115851814124  0.7089986131229966  0.3353417147438598  1.0000
  B   B8        1.0  0.22538841532571338  0.29100138681582566  0.6646582855056659  1.0000
  B   B9        1.0  0.9323224082761072  0.6767102460661563  0.3296656827314279  1.0000
  B   B10       1.0  0.06767759167517169  0.32328975404708155  0.6703343166305044  1.0000
  B   B11       1.0  0.037045474591552024  0.783296719635421  0.21678955533595445  1.0000
  B   B12       1.0  0.9629545259155738  0.2167032803034011  0.7832104449135713  1.0000
  B   B13       1.0  0.02629249347772358  0.7797712389235277  0.07697356833256178  1.0000
  B   B14       1.0  0.9737075064735553  0.22022876118971002  0.9230264310293703  1.0000
  B   B15       1.0  0.8683683423351308  0.8110791718584865  0.08358239886314058  1.0000
  B   B16       1.0  0.13163165729015233  0.18892082807667032  0.916417601386732  1.0000
  B   B17       1.0  0.7656018587531019  0.7018312599987867  0.1945182249780336  1.0000
  B   B18       1.0  0.23439814175402382  0.2981687399400356  0.8054817752714922  1.0000
  B   B19       1.0  0.8564912659698083  0.6041207608793632  0.2583820625975198  1.0000
  B   B20       1.0  0.14350873486331328  0.39587923923753987  0.7416179367640655  1.0000
  B   B21       1.0  0.017463985654235792  0.6504676694513678  0.1856167558929374  1.0000
  B   B22       1.0  0.9825360142970431  0.34953233066187  0.8143832434689948  1.0000
  B   B23       1.0  0.9149888842142879  0.6671220651884744  0.10267683628815924  1.0000
  B   B24       1.0  0.0850111154109952  0.33287793474668265  0.8973231639617134  1.0000
  C   C1        1.0  0.9357039052412717  0.012645912859831465  0.2767985865302243  1.0000
  C   C2        1.0  0.06429609438401142  0.9873540870753257  0.7232014137196484  1.0000
  C   C3        1.0  0.9463503770705408  0.1195676227781627  0.3133509031756339  1.0000
  C   C4        1.0  0.05364962343658502  0.8804323771606596  0.6866490970738918  1.0000
  C   C5        1.0  0.9831376911510196  0.22375191705107028  0.22914130698833335  1.0000
  C   C6        1.0  0.01686230847426358  0.7762480828840865  0.7708586932615393  1.0000
  C   C7        1.0  0.9948912572711078  0.3242295794173443  0.26525262552231216  1.0000
  C   C8        1.0  0.0051087423541753265  0.6757704205178128  0.7347473747275605  1.0000
  C   C9        1.0  0.9704058500397564  0.3219883233585646  0.3852787794528069  1.0000
  C   C10       1.0  0.02959415046736936  0.6780116765802577  0.6147212207967188  1.0000
  C   C11       1.0  0.932559995375986  0.21904336994507162  0.4694874763753386  1.0000
  C   C12       1.0  0.06744000424929718  0.7809566299900854  0.5305125238745341  1.0000
  C   C13       1.0  0.9200747936342877  0.11807224378446884  0.43413371990219446  1.0000
  C   C14       1.0  0.07992520599099538  0.8819277561506881  0.5658662803476782  1.0000
  C   C15       1.0  0.6746061640039062  0.9294666636066871  0.24433428853280045  1.0000
  C   C16       1.0  0.32539383594737276  0.0705333365065507  0.7556657108291317  1.0000
  C   C17       1.0  0.5398293730776671  0.8770013160807233  0.2856400703195081  1.0000
  C   C18       1.0  0.4601706265476162  0.12299868385443367  0.7143599299303646  1.0000
  C   C19       1.0  0.4407592193518196  0.9645116502672206  0.29060944947821205  1.0000
  C   C20       1.0  0.5592407805994593  0.035488349846017224  0.70939054988372  1.0000
  C   C21       1.0  0.40578102505070934  0.027776850681331178  0.38003641725629617  1.0000
  C   C22       1.0  0.5942189749005695  0.9722231494319067  0.6199635821056361  1.0000
  C   C23       1.0  0.3179818038129235  0.11236442514348056  0.3827050633315798  1.0000
  C   C24       1.0  0.6820181958123597  0.8876355747916765  0.6172949369182928  1.0000
  C   C25       1.0  0.26056200288808384  0.1337667903836152  0.2967718664518889  1.0000
  C   C26       1.0  0.7394379979450376  0.866233209733288  0.7032281329096964  1.0000
  C   C27       1.0  0.2920534015779563  0.07004803515835496  0.20850896232206725  1.0000
  C   C28       1.0  0.7079465989291694  0.9299519647804673  0.7914910379274586  1.0000
  C   C29       1.0  0.3822016895022451  0.9872564641118393  0.2050852176372416  1.0000
  C   C30       1.0  0.6177983110048808  0.012743535826982762  0.7949147826122841  1.0000
  C   C31       1.0  0.5482456141662582  0.29712417183326667  0.09169876327415953  1.0000
  C   C32       1.0  0.45175438634086773  0.7028758281055554  0.9083012369753661  1.0000
  C   C33       1.0  0.6301459827602182  0.23509891103672298  0.9993549749318847  1.0000
  C   C34       1.0  0.3698540168650649  0.764901088898434  0.0006450253179879739  1.0000
  C   C35       1.0  0.6535401495159991  0.24710653193700344  0.24308332711754985  1.0000
  C   C36       1.0  0.34645985043527966  0.7528934681762343  0.7569166722443823  1.0000
  C   C37       1.0  0.6457002971309493  0.27954925894640337  0.3580385460011109  1.0000
  C   C38       1.0  0.3542997024943338  0.7204507409887536  0.6419614542487617  1.0000
  C   C39       1.0  0.7212502453653555  0.42798493800452625  0.08883026519265037  1.0000
  C   C40       1.0  0.2787497545859233  0.5720150621087116  0.9111697341692818  1.0000
  C   C41       1.0  0.6814877842462239  0.5282767247642396  0.012740559795889521  1.0000
  C   C42       1.0  0.3185122153790592  0.4717232751709174  0.9872594404539831  1.0000
  C   C43       1.0  0.5574731550358233  0.46556533012238893  0.637471649988757  1.0000
  C   C44       1.0  0.4425268449154555  0.5344346699908488  0.362528349373175  1.0000
  C   C45       1.0  0.6711980226431233  0.39116244742607137  0.6117067072103489  1.0000
  C   C46       1.0  0.3288019769821599  0.6088375525090858  0.3882932930395237  1.0000
  C   C47       1.0  0.7743444046921827  0.46099817548823474  0.6277411801762958  1.0000
  C   C48       1.0  0.22565559493310047  0.5390018244469222  0.37225882007357686  1.0000
  C   C49       1.0  0.7065008675787389  0.5620576929666028  0.6766606732579883  1.0000
  C   C50       1.0  0.29349913237254005  0.437942307146635  0.32333932610394395  1.0000
  N   N1        1.0  0.9656222388336955  0.002524323329400462  0.1652729208816719  1.0000
  N   N2        1.0  0.034377760791587726  0.9974756766057564  0.8347270793682008  1.0000
  N   N3        1.0  0.6138071087557234  0.3421701553388266  0.1624938642321986  1.0000
  N   N4        1.0  0.38619289086955966  0.6578298445963304  0.837506136017674  1.0000
  O   O1        1.0  0.8929045701110164  0.9186547888348048  0.3603066224932912  1.0000
  O   O2        1.0  0.10709542951426665  0.08134521110035217  0.6396933777565814  1.0000
  O   O3        1.0  0.5732342353764954  0.5293489734218019  0.7201091607354356  1.0000
  O   O4        1.0  0.4267657642487877  0.47065102651335505  0.2798908395144369  1.0000
