data_image0
_chemical_formula_structural       H156C80O28Br12
_chemical_formula_sum              "H156 C80 O28 Br12"
_cell_length_a       8.272526414659055
_cell_length_b       12.770579618856633
_cell_length_c       23.442883929260386
_cell_angle_alpha    90.0
_cell_angle_beta     90.0
_cell_angle_gamma    90.0

_space_group_name_H-M_alt    "P 1"
_space_group_IT_number       1

loop_
  _space_group_symop_operation_xyz
  'x, y, z'

loop_
  _atom_site_type_symbol
  _atom_site_label
  _atom_site_symmetry_multiplicity
  _atom_site_fract_x
  _atom_site_fract_y
  _atom_site_fract_z
  _atom_site_occupancy
  H   H1        1.0  0.20467408565775883  0.49296127489032765  0.1591105928458044  1.0000
  H   H2        1.0  0.29532591466505337  0.5070387251992038  0.6591105926482949  1.0000
  H   H3        1.0  0.795325913779045  0.9929612749350933  0.34088940738325474  1.0000
  H   H4        1.0  0.7046740859805711  0.007038725154438045  0.8408894071857452  1.0000
  H   H5        1.0  0.21228154761623405  0.5718593758435724  0.0965466760331056  1.0000
  H   H6        1.0  0.2877184514977576  0.42814062424595906  0.5965466758355961  1.0000
  H   H7        1.0  0.7877184518205699  0.07185937579880666  0.4034533241959536  1.0000
  H   H8        1.0  0.7122815479390462  0.9281406242907247  0.9034533239984439  1.0000
  H   H9        1.0  0.17802298671302536  0.3761339464112796  0.0802252651881528  1.0000
  H   H10       1.0  0.32197701360978687  0.6238660536782519  0.5802252649906433  1.0000
  H   H11       1.0  0.821977013932599  0.8761339464560454  0.4197747350409063  1.0000
  H   H12       1.0  0.6780229858270169  0.1238660536334861  0.9197747348433969  1.0000
  H   H13       1.0  0.983135869543814  0.38639132108882207  0.11358092536885268  1.0000
  H   H14       1.0  0.516864130215802  0.6136086790007093  0.6135809255979119  1.0000
  H   H15       1.0  0.01686413110181042  0.886391320350538  0.3864190744336378  1.0000
  H   H16       1.0  0.4831358692210018  0.11360867895594362  0.8864190746626969  1.0000
  H   H17       1.0  0.842047001222793  0.3397843433506191  0.03246937843896985  1.0000
  H   H18       1.0  0.6579529985368232  0.6602156559558625  0.532469378668029  1.0000
  H   H19       1.0  0.1579529994228315  0.8397843433953848  0.4675306213635206  1.0000
  H   H20       1.0  0.34204700089998075  0.16021565591109682  0.9675306215925797  1.0000
  H   H21       1.0  0.026848152410421013  0.31918037956408285  0.9948139392906075  1.0000
  H   H22       1.0  0.4731518479123912  0.6808196205254486  0.494813939488117  1.0000
  H   H23       1.0  0.9731518470263828  0.8191803796088486  0.5051860605434325  1.0000
  H   H24       1.0  0.5268481527332333  0.1808196204806829  0.005186060314373433  1.0000
  H   H25       1.0  0.9433714549609737  0.4671681198550129  0.9271399135697435  1.0000
  H   H26       1.0  0.5566285460074629  0.5328318794514687  0.42713991376725285  1.0000
  H   H27       1.0  0.05662854568465071  0.9671681198997786  0.5728600862642967  1.0000
  H   H28       1.0  0.4433714546381615  0.03283188018975281  0.07286008646180625  1.0000
  H   H29       1.0  0.8310980231887671  0.3483680203074693  0.924650670344546  1.0000
  H   H30       1.0  0.6689019765708489  0.6516319797820622  0.42465067054205546  1.0000
  H   H31       1.0  0.1689019762480367  0.848368020352235  0.5753493294894941  1.0000
  H   H32       1.0  0.3310980240747755  0.15163197973729645  0.07534932968700363  1.0000
  H   H33       1.0  0.7024692057437817  0.5685953329227287  0.8917063072563495  1.0000
  H   H34       1.0  0.7975307940158345  0.43140466716680276  0.39170630745385904  1.0000
  H   H35       1.0  0.2975307936930222  0.06859533287796296  0.6082936925776906  1.0000
  H   H36       1.0  0.20246920662979  0.9314046672115684  0.10829369234863141  1.0000
  H   H37       1.0  0.6954234077519234  0.3860641824526218  0.854456771208011  1.0000
  H   H38       1.0  0.8045765920076928  0.6139358176369096  0.35445677097895184  1.0000
  H   H39       1.0  0.3045765916848806  0.8860641824973874  0.6455432290525978  1.0000
  H   H40       1.0  0.1954234074291111  0.11393581759214391  0.1455432288235386  1.0000
  H   H41       1.0  0.5223909557233015  0.4570456591791384  0.8355466558255481  1.0000
  H   H42       1.0  0.9776090440363147  0.542954340910393  0.33554665559648894  1.0000
  H   H43       1.0  0.477609044922323  0.9570456592239042  0.6644533444350607  1.0000
  H   H44       1.0  0.022390955400489233  0.04295434086562726  0.16445334420600152  1.0000
  H   H45       1.0  0.441448491905542  0.2791265906785165  0.8692855636487783  1.0000
  H   H46       1.0  0.058551508417270234  0.7208734094110149  0.36928556384628775  1.0000
  H   H47       1.0  0.5585515087400824  0.7791265907232822  0.6307144361852618  1.0000
  H   H48       1.0  0.9414484922283543  0.22087340936624922  0.1307144359562027  1.0000
  H   H49       1.0  0.5426367973930499  0.3001265811256228  0.9345321060373135  1.0000
  H   H50       1.0  0.957363202366566  0.6998734189639086  0.43453210580825435  1.0000
  H   H51       1.0  0.45736320204375386  0.8001265811703885  0.5654678942232952  1.0000
  H   H52       1.0  0.042636798279058356  0.1998734189191429  0.06546789399423611  1.0000
  H   H53       1.0  0.24757665522478842  0.41855301165089637  0.8891427271873893  1.0000
  H   H54       1.0  0.25242334509802383  0.581446988438635  0.3891427273848988  1.0000
  H   H55       1.0  0.752423345420836  0.9185530116956622  0.6108572726466508  1.0000
  H   H56       1.0  0.7475766555476007  0.08144698839386931  0.11085727241759165  1.0000
  H   H57       1.0  0.25085223618298075  0.33113600448924735  0.9472151637573959  1.0000
  H   H58       1.0  0.24914776293101093  0.6688639956002841  0.44721516395490535  1.0000
  H   H59       1.0  0.7491477632538232  0.8311360045340129  0.5527848360766443  1.0000
  H   H60       1.0  0.7508522365057929  0.1688639955555184  0.05278483584758509  1.0000
  H   H61       1.0  0.42525876783736927  0.45108174115246247  0.0031049571468955554  1.0000
  H   H62       1.0  0.07474123127662236  0.5489182589370689  0.5031049569493861  1.0000
  H   H63       1.0  0.5747412315994346  0.9510817411972282  0.4968950430821636  1.0000
  H   H64       1.0  0.9252587681601815  0.048918258892303244  0.996895042884654  1.0000
  H   H65       1.0  0.2502794111761481  0.517115116705349  0.9795541584940352  1.0000
  H   H66       1.0  0.24972058793784352  0.4828848833841823  0.4795541582649761  1.0000
  H   H67       1.0  0.7497205882606558  0.017115116660583404  0.5204458417665735  1.0000
  H   H68       1.0  0.7502794114989604  0.982884883428948  0.020445841537514366  1.0000
  H   H69       1.0  0.4081145711444845  0.592481814907429  0.8967551135532689  1.0000
  H   H70       1.0  0.09188542917832773  0.4075181851821024  0.3967551137507785  1.0000
  H   H71       1.0  0.59188542950114  0.09248181486266327  0.6032448862807712  1.0000
  H   H72       1.0  0.9081145714672968  0.9075181852268681  0.10324488647828071  1.0000
  H   H73       1.0  0.29400450939511924  0.6653591985326622  0.008252703915772184  1.0000
  H   H74       1.0  0.20599549092769298  0.3346408015568692  0.5082527041448314  1.0000
  H   H75       1.0  0.7059954912505052  0.16535919848789654  0.4917472958867182  1.0000
  H   H76       1.0  0.7940045085091109  0.8346408016016349  0.9917472961157775  1.0000
  H   H77       1.0  0.33609148894021257  0.7514731998404949  0.9493748617771778  1.0000
  H   H78       1.0  0.16390851017377908  0.2485268002490366  0.44937486197468723  1.0000
  H   H79       1.0  0.6639085104965913  0.25147319979572913  0.5506251380568624  1.0000
  H   H80       1.0  0.8360914892630248  0.7485268002938024  0.05062513825437189  1.0000
  H   H81       1.0  0.5434005241777484  0.8424406840637372  0.008515549136462333  1.0000
  H   H82       1.0  0.9565994755818678  0.15755931602579432  0.5085155493655215  1.0000
  H   H83       1.0  0.4565994752590555  0.34244068401897143  0.4914844506660281  1.0000
  H   H84       1.0  0.043400525063756745  0.6575593160705601  0.9914844508950873  1.0000
  H   H85       1.0  0.34855799129156834  0.842891344109856  0.041027987550606146  1.0000
  H   H86       1.0  0.1514420078224233  0.15710865597967535  0.5410279873530967  1.0000
  H   H87       1.0  0.6514420081452356  0.34289134406509036  0.458972012678453  1.0000
  H   H88       1.0  0.8485579916143806  0.657108656024441  0.9589720124809434  1.0000
  H   H89       1.0  0.4352230116328238  0.8567871088516514  0.13355598097263538  1.0000
  H   H90       1.0  0.06477698748116785  0.14321289123787984  0.6335559812016945  1.0000
  H   H91       1.0  0.56477698780398  0.35678710880688586  0.36644401882985506  1.0000
  H   H92       1.0  0.935223011955636  0.6432128912826456  0.8664440186323455  1.0000
  H   H93       1.0  0.6302915782487586  0.8784674975468665  0.10375117785590365  1.0000
  H   H94       1.0  0.8697084215108575  0.12153250254266504  0.6037511780849628  1.0000
  H   H95       1.0  0.3697084211880453  0.3784674975021007  0.3962488219465868  1.0000
  H   H96       1.0  0.1302915779259464  0.6215325025874308  0.8962488221756459  1.0000
  H   H97       1.0  0.6188745388504151  0.829817890517078  0.20782130239185584  1.0000
  H   H98       1.0  0.8811254609092011  0.17018210957245342  0.7078213026209149  1.0000
  H   H99       1.0  0.3811254617952094  0.32981789047231225  0.2921786974106346  1.0000
  H   H100      1.0  0.11887453852760284  0.6701821096172191  0.7921786976396937  1.0000
  H   H101      1.0  0.5543721651796032  0.701579805099102  0.1884804763497971  1.0000
  H   H102      1.0  0.945627834580013  0.29842019499042943  0.6884804765788561  1.0000
  H   H103      1.0  0.4456278342572007  0.2015798050543363  0.3115195234526934  1.0000
  H   H104      1.0  0.054372164856790965  0.7984201950351951  0.8115195236817525  1.0000
  H   H105      1.0  0.7911129311600664  0.6240500750829286  0.22240152345302727  1.0000
  H   H106      1.0  0.7088870685995496  0.3759499250066027  0.7224015232555177  1.0000
  H   H107      1.0  0.20888706948555802  0.12405007503816297  0.2775984767760319  1.0000
  H   H108      1.0  0.29111293083725426  0.8759499250513684  0.7775984765785222  1.0000
  H   H109      1.0  0.7792523525312529  0.7936491469059438  0.27637613100635317  1.0000
  H   H110      1.0  0.720747647228363  0.2063508531835875  0.7763761312354124  1.0000
  H   H111      1.0  0.2207476469055509  0.29364914686117816  0.2236238687961373  1.0000
  H   H112      1.0  0.27925235341726135  0.7063508532283532  0.7236238690251965  1.0000
  H   H113      1.0  0.9539140698319828  0.7210087235511381  0.292413456923014  1.0000
  H   H114      1.0  0.5460859299276333  0.27899127653839334  0.7924134567255046  1.0000
  H   H115      1.0  0.046085929604821066  0.2210087235063724  0.20758654330604512  1.0000
  H   H116      1.0  0.45391406950917057  0.778991276583159  0.7075865431085355  1.0000
  H   H117      1.0  0.026207649166984905  0.9091397803790117  0.278316447314588  1.0000
  H   H118      1.0  0.47379235115582735  0.09086021971051983  0.7783164471170786  1.0000
  H   H119      1.0  0.973792350269819  0.4091397803342459  0.22168355291447114  1.0000
  H   H120      1.0  0.5262076494897971  0.5908602197552856  0.7216835527169616  1.0000
  H   H121      1.0  0.9406642638469853  0.9057323594710562  0.20923220857984048  1.0000
  H   H122      1.0  0.5593357359126309  0.09426764061847513  0.7092322088088997  1.0000
  H   H123      1.0  0.05933573558981863  0.4057323594262906  0.29076779122264995  1.0000
  H   H124      1.0  0.44066426352417304  0.5942676406632409  0.7907677914517092  1.0000
  H   H125      1.0  0.23304367292001632  0.779505761453548  0.25215846215156773  1.0000
  H   H126      1.0  0.26695632619397536  0.2204942386359834  0.7521584619540582  1.0000
  H   H127      1.0  0.7669563265167876  0.2795057614087823  0.24784153807749143  1.0000
  H   H128      1.0  0.7330436732428286  0.720494238680749  0.7478415378799819  1.0000
  H   H129      1.0  0.2397032007641798  0.8839644007490004  0.20358184958818643  1.0000
  H   H130      1.0  0.26029679955863244  0.11603559934053106  0.7035818493906768  1.0000
  H   H131      1.0  0.7602967998814446  0.38396440070423465  0.2964181506408728  1.0000
  H   H132      1.0  0.7397031998781715  0.6160355993852967  0.7964181504433633  1.0000
  H   H133      1.0  0.08636628814311814  0.7775936720473675  0.1312799589541412  1.0000
  H   H134      1.0  0.4136337121796941  0.22240632804216384  0.6312799587566317  1.0000
  H   H135      1.0  0.9136337125025062  0.2775936720026018  0.3687200412749179  1.0000
  H   H136      1.0  0.5863662872571098  0.7224063280869296  0.8687200410774084  1.0000
  H   H137      1.0  0.2575420087175156  0.7075188440670757  0.15543915377458276  1.0000
  H   H138      1.0  0.24245799160529666  0.2924811560224557  0.6554391540036419  1.0000
  H   H139      1.0  0.7424579907192883  0.20751884402230994  0.3445608460279077  1.0000
  H   H140      1.0  0.7575420090403278  0.7924811560672214  0.8445608462569668  1.0000
  H   H141      1.0  0.08599696324201103  0.6072550261187217  0.22282118641043844  1.0000
  H   H142      1.0  0.41400303708080116  0.39274497397080965  0.7228211862129289  1.0000
  H   H143      1.0  0.9140030361947928  0.10725502607395607  0.2771788138186207  1.0000
  H   H144      1.0  0.5859969635648232  0.8927449740155753  0.7771788136211112  1.0000
  H   H145      1.0  0.6903938958574345  0.5408183110030487  0.02276226216920212  1.0000
  H   H146      1.0  0.8096061039021815  0.4591816890864828  0.5227622623982613  1.0000
  H   H147      1.0  0.3096061047881899  0.04081831095828291  0.47723773763328836  1.0000
  H   H148      1.0  0.19039389553462235  0.9591816891312486  0.9772377378623475  1.0000
  H   H149      1.0  0.6417138917311984  0.5039797826009901  0.08747173070462305  1.0000
  H   H150      1.0  0.8582861092372381  0.49602021748854136  0.5874717305071135  1.0000
  H   H151      1.0  0.35828610891442597  0.003979782556224363  0.4125282695244361  1.0000
  H   H152      1.0  0.14171389140838625  0.996020217533307  0.9125282693269265  1.0000
  H   H153      1.0  0.6153193951705006  0.6318902423257813  0.06878091811850177  1.0000
  H   H154      1.0  0.8846806045891155  0.36810975776375016  0.568780918347561  1.0000
  H   H155      1.0  0.3846806054751237  0.13189024228101554  0.4312190816839887  1.0000
  H   H156      1.0  0.11531939484768845  0.868109757808516  0.9312190819130479  1.0000
  C   C1        1.0  0.13217730535890532  0.5218389085613526  0.12274417894499993  1.0000
  C   C2        1.0  0.36782269375508636  0.4781610915281787  0.6227441791740591  1.0000
  C   C3        1.0  0.8678226940778986  0.021838908516586965  0.37725582085749054  1.0000
  C   C4        1.0  0.6321773056817175  0.9781610915729445  0.8772558210865496  1.0000
  C   C5        1.0  0.07497834142915379  0.42922153368092447  0.0886406875651651  1.0000
  C   C6        1.0  0.42502165889365845  0.5707784664086069  0.5886406873676555  1.0000
  C   C7        1.0  0.9250216592164707  0.9292215337256903  0.41135931266389403  1.0000
  C   C8        1.0  0.5749783405431454  0.07077846636384119  0.9113593124663846  1.0000
  C   C9        1.0  0.9346339754562946  0.3787438905950804  0.00580374157081332  1.0000
  C   C10       1.0  0.5653660243033215  0.621256109494451  0.5058037417998724  1.0000
  C   C11       1.0  0.06536602518932981  0.8787438906398461  0.4941962582316772  1.0000
  C   C12       1.0  0.4346339751334824  0.12125610944968529  0.9941962580341676  1.0000
  C   C13       1.0  0.859138943020579  0.41696621053420485  0.9512813021338702  1.0000
  C   C14       1.0  0.6408610567390371  0.5830337895553266  0.45128130233137975  1.0000
  C   C15       1.0  0.14086105641622493  0.9169662105789707  0.5487186977001699  1.0000
  C   C16       1.0  0.35913894269776675  0.08303378951056085  0.04871869747111072  1.0000
  C   C17       1.0  0.6263725687013789  0.509603817072687  0.9132406287810958  1.0000
  C   C18       1.0  0.8736274322670579  0.4903961830168444  0.41324062855203664  1.0000
  C   C19       1.0  0.3736274319442456  0.009603817027921298  0.5867593710529443  1.0000
  C   C20       1.0  0.1263725683785666  0.9903961830616101  0.08675937125045384  1.0000
  C   C21       1.0  0.5849457200191285  0.4210610818368969  0.872099579202456  1.0000
  C   C22       1.0  0.9150542809493082  0.5789389182526344  0.3720995793999655  1.0000
  C   C23       1.0  0.41505428062649596  0.9210610818816626  0.6279004206315841  1.0000
  C   C24       1.0  0.08494571969631623  0.07893891820786879  0.12790042082909367  1.0000
  C   C25       1.0  0.47561053211362364  0.3397853699289257  0.9002304470594128  1.0000
  C   C26       1.0  0.024389468209188605  0.6602146301606057  0.40023044725692225  1.0000
  C   C27       1.0  0.5243894685320009  0.8397853699736914  0.5997695527746273  1.0000
  C   C28       1.0  0.9756105312276153  0.16021463011583997  0.09976955297213687  1.0000
  C   C29       1.0  0.32342821477835937  0.3902062982828143  0.9246466379908354  1.0000
  C   C30       1.0  0.17657178554445285  0.6097937010236673  0.4246466377617762  1.0000
  C   C31       1.0  0.6765717846584445  0.8902062983275799  0.5753533622697734  1.0000
  C   C32       1.0  0.8234282151011716  0.1097937017619514  0.07535336204071426  1.0000
  C   C33       1.0  0.36323344156089254  0.48092159896418785  0.9648553027116242  1.0000
  C   C34       1.0  0.13676655876191962  0.5190784003422937  0.46485530248256507  1.0000
  C   C35       1.0  0.6367665590847319  0.9809215990089535  0.5351446971224159  1.0000
  C   C36       1.0  0.8632334406748843  0.019078401080577862  0.03514469731992541  1.0000
  C   C37       1.0  0.47152983435481305  0.5606866809261608  0.9345547154569396  1.0000
  C   C38       1.0  0.02847016475917856  0.4393133191633707  0.4345547156544491  1.0000
  C   C39       1.0  0.5284701650819907  0.06068668088139505  0.5654452843771006  1.0000
  C   C40       1.0  0.9715298346776253  0.9393133192081363  0.0654452845746101  1.0000
  C   C41       1.0  0.38837817118440904  0.7120871136163965  0.9869664350946592  1.0000
  C   C42       1.0  0.11162182913840318  0.2879128864731349  0.48696643529216876  1.0000
  C   C43       1.0  0.6116218282523948  0.2120871135716308  0.5130335647393809  1.0000
  C   C44       1.0  0.8883781715072212  0.7879128865179007  0.013033564936890417  1.0000
  C   C45       1.0  0.4501364907583038  0.7925564251645286  0.028087334390550545  1.0000
  C   C46       1.0  0.049863509564508385  0.20744357492500284  0.5280873346196097  1.0000
  C   C47       1.0  0.5498635098873206  0.2925564251197629  0.47191266541193994  1.0000
  C   C48       1.0  0.9501364898722956  0.7074435749697686  0.9719126652144304  1.0000
  C   C49       1.0  0.5494018818660147  0.8180871723765484  0.12156764622474131  1.0000
  C   C50       1.0  0.9505981178936014  0.18191282771298312  0.6215676464538005  1.0000
  C   C51       1.0  0.4505981175707892  0.31808717233178263  0.3784323535777492  1.0000
  C   C52       1.0  0.049401881543202464  0.6819128277577489  0.8784323538068083  1.0000
  C   C53       1.0  0.6244536289235777  0.7701795723881637  0.17375233278854144  1.0000
  C   C54       1.0  0.8755463708360384  0.22982042770136768  0.6737523325910318  1.0000
  C   C55       1.0  0.37554637051322615  0.27017957234339807  0.3262476674405177  1.0000
  C   C56       1.0  0.12445362860076548  0.7298204277461333  0.8262476672430082  1.0000
  C   C57       1.0  0.8662002139155849  0.6911164045340489  0.20862904345550393  1.0000
  C   C58       1.0  0.6337997858440312  0.3088835955554825  0.7086290436845631  1.0000
  C   C59       1.0  0.1337997867300395  0.1911164044892832  0.2913709563469865  1.0000
  C   C60       1.0  0.3662002135927727  0.8088835956002483  0.7913709565760457  1.0000
  C   C61       1.0  0.8947221911415378  0.7663465599908468  0.2585394104364027  1.0000
  C   C62       1.0  0.6052778086180782  0.23365344009868458  0.7585394106654618  1.0000
  C   C63       1.0  0.10527780950408655  0.26634655994608114  0.24146058936608775  1.0000
  C   C64       1.0  0.39472219081872567  0.7336534401434502  0.7414605895951469  1.0000
  C   C65       1.0  0.003559228284581247  0.8578784265847497  0.24144344215838015  1.0000
  C   C66       1.0  0.4964407708294104  0.1421215735047817  0.7414434423874393  1.0000
  C   C67       1.0  0.9964407711522225  0.35787842653998403  0.25855655764411034  1.0000
  C   C68       1.0  0.5035592286073934  0.6421215735495475  0.7585565578731694  1.0000
  C   C69       1.0  0.16429676278718974  0.8177652120487704  0.21764719287082077  1.0000
  C   C70       1.0  0.3357032363268019  0.18223478804076096  0.7176471930998799  1.0000
  C   C71       1.0  0.8357032366496141  0.3177652120040048  0.2823528069316697  1.0000
  C   C72       1.0  0.664296763110002  0.6822347880855266  0.7823528071607289  1.0000
  C   C73       1.0  0.1400925088551396  0.7395212325410132  0.1688299533428978  1.0000
  C   C74       1.0  0.35990749025885205  0.2604787675485181  0.6688299531453883  1.0000
  C   C75       1.0  0.8599074905816643  0.23952123249624754  0.33117004645959264  1.0000
  C   C76       1.0  0.6400925091779519  0.7604787675932838  0.8311700466886518  1.0000
  C   C77       1.0  0.02831603409387895  0.6501627857000414  0.18695566864662094  1.0000
  C   C78       1.0  0.47168396622893327  0.34983721438949006  0.6869556684491114  1.0000
  C   C79       1.0  0.9716839665517455  0.15016278565527563  0.3130443315824382  1.0000
  C   C80       1.0  0.5283160344166912  0.8498372136512059  0.8130443313849287  1.0000
  O   O1        1.0  0.9943811560907574  0.5778591692974939  0.14208141583820424  1.0000
  O   O2        1.0  0.5056188436688586  0.42214083079203746  0.6420814156406948  1.0000
  O   O3        1.0  0.005618843346046387  0.07785916925272822  0.35791858439085494  1.0000
  O   O4        1.0  0.4943811569767658  0.9221408308368032  0.8579185841933453  1.0000
  O   O5        1.0  0.005416994489203683  0.46350131604519546  0.03596501234848712  1.0000
  O   O6        1.0  0.4945830058336086  0.5364986840443359  0.5359650121509776  1.0000
  O   O7        1.0  0.9945830061564208  0.9635013160899611  0.464034987880572  1.0000
  O   O8        1.0  0.5054169936031954  0.03649868399957021  0.9640349876830625  1.0000
  O   O9        1.0  0.7127757282891696  0.4737743258783816  0.9637260794437071  1.0000
  O   O10       1.0  0.7872242726792671  0.5262256734281  0.4637260792146479  1.0000
  O   O11       1.0  0.2872242723564549  0.9737743259231474  0.5362739208169016  1.0000
  O   O12       1.0  0.2127757279663573  0.02622567338333431  0.036273920587842484  1.0000
  O   O13       1.0  0.5199702212346796  0.6467823424242909  0.9701081858625021  1.0000
  O   O14       1.0  0.9800297785249363  0.35321765766524055  0.47010818563344303  1.0000
  O   O15       1.0  0.4800297782021242  0.14678234237952514  0.529891813971538  1.0000
  O   O16       1.0  0.019970220911867436  0.8532176577100063  0.029891814169047435  1.0000
  O   O17       1.0  0.5148727663718852  0.7411395427991855  0.0780084363987932  1.0000
  O   O18       1.0  0.9851272333877311  0.258860457290346  0.5780084362012836  1.0000
  O   O19       1.0  0.48512723427373927  0.24113954275441973  0.4219915638302659  1.0000
  O   O20       1.0  0.014872766049072906  0.7588604573351118  0.9219915636327564  1.0000
  O   O21       1.0  0.7868763717049166  0.7415444179226579  0.1612400211256455  1.0000
  O   O22       1.0  0.7131236280546994  0.2584555821668735  0.6612400213547046  1.0000
  O   O23       1.0  0.21312362894070777  0.24154441787789221  0.338759978676845  1.0000
  O   O24       1.0  0.2868763713821045  0.7584555822116391  0.838759978905904  1.0000
  O   O25       1.0  0.6836194248928339  0.5656127024441748  0.06421425130724066  1.0000
  O   O26       1.0  0.8163805748667823  0.43438729764535655  0.5642142511097311  1.0000
  O   O27       1.0  0.31638057454397  0.06561270239940914  0.43578574892181854  1.0000
  O   O28       1.0  0.18361942577884222  0.9343872976901223  0.9357857487243089  1.0000
  Br  Br1       1.0  0.5089106856812026  0.4702562060012179  0.21012350420980863  1.0000
  Br  Br2       1.0  0.9910893140784135  0.5297437940883134  0.7101235040122991  1.0000
  Br  Br3       1.0  0.4910893137556012  0.9702562060459837  0.2898764960192505  1.0000
  Br  Br4       1.0  0.008910686567210927  0.029743794043547735  0.789876495821741  1.0000
  Br  Br5       1.0  0.46095106849618434  0.5802314187101414  0.2963801109524671  1.0000
  Br  Br6       1.0  0.03904893061780735  0.41976858059634026  0.7963801107549575  1.0000
  Br  Br7       1.0  0.5390489309406196  0.08023141866537566  0.2036198892765921  1.0000
  Br  Br8       1.0  0.9609510688189965  0.919768580641106  0.7036198890790826  1.0000
  Br  Br9       1.0  0.5594133204337105  0.3566370169506658  0.1168950735015842  1.0000
  Br  Br10      1.0  0.9405866793259056  0.6433629831388656  0.6168950737306433  1.0000
  Br  Br11      1.0  0.4405866790030934  0.8566370162123816  0.3831049263009063  1.0000
  Br  Br12      1.0  0.059413320110898275  0.1433629830940999  0.8831049261033967  1.0000
