data_image0
_chemical_formula_structural       H80C92N20O4Br4
_chemical_formula_sum              "H80 C92 N20 O4 Br4"
_cell_length_a       15.907354219023082
_cell_length_b       5.914944218471599
_cell_length_c       22.776509872818504
_cell_angle_alpha    90.0
_cell_angle_beta     103.4372143585609
_cell_angle_gamma    90.0

_space_group_name_H-M_alt    "P 1"
_space_group_IT_number       1

loop_
  _space_group_symop_operation_xyz
  'x, y, z'

loop_
  _atom_site_type_symbol
  _atom_site_label
  _atom_site_symmetry_multiplicity
  _atom_site_fract_x
  _atom_site_fract_y
  _atom_site_fract_z
  _atom_site_occupancy
  H   H1        1.0  0.130407922905877  0.9178529888829362  0.7462432418575552  1.0000
  H   H2        1.0  0.8695920771492427  0.4178529887537379  0.7537567583548895  1.0000
  H   H3        1.0  0.8695920773483069  0.08214701137546038  0.25375675838366885  1.0000
  H   H4        1.0  0.13040792247655283  0.5821470115046586  0.2462432418870885  1.0000
  H   H5        1.0  0.975574698161235  0.8313708309612204  0.7054903609310563  1.0000
  H   H6        1.0  0.024425301893884865  0.3313708308320222  0.7945096392813887  1.0000
  H   H7        1.0  0.02442530209294901  0.16862916929717606  0.2945096393101678  1.0000
  H   H8        1.0  0.9755746983602992  0.6686291677357413  0.20549036095983556  1.0000
  H   H9        1.0  0.9408691502039334  0.48085216613165876  0.6167203357998945  1.0000
  H   H10       1.0  0.059130849851186384  0.980852166260857  0.8832796644125506  1.0000
  H   H11       1.0  0.05913084942186222  0.5191478341267377  0.3832796644420836  1.0000
  H   H12       1.0  0.9408691504029977  0.019147833997539467  0.1167203358286737  1.0000
  H   H13       1.0  0.09633166729704223  0.5677381469656076  0.6580084614009689  1.0000
  H   H14       1.0  0.903668332606833  0.06773814683640939  0.8419915383600706  1.0000
  H   H15       1.0  0.903668332177509  0.4322618532927888  0.34199153838960383  1.0000
  H   H16       1.0  0.09633166749610639  0.9322618534219871  0.15800846142974814  1.0000
  H   H17       1.0  0.35883753654321443  0.6335696181710313  0.7147422833287511  1.0000
  H   H18       1.0  0.641162463360661  0.133569618041833  0.7852577164322886  1.0000
  H   H19       1.0  0.6411624635597251  0.3664303820873652  0.2852577164610677  1.0000
  H   H20       1.0  0.3588375367422786  0.8664303822165634  0.21474228335753034  1.0000
  H   H21       1.0  0.20691845116790747  0.7673868142027678  0.6280927449881482  1.0000
  H   H22       1.0  0.7930815487359677  0.26738681407356946  0.8719072547728913  1.0000
  H   H23       1.0  0.7930815489350319  0.2326131860556288  0.37190725480167053  1.0000
  H   H24       1.0  0.20691845073858334  0.7326131861848271  0.12809274501768136  1.0000
  H   H25       1.0  0.3568252274242932  0.4520266111133129  0.56905172681882  1.0000
  H   H26       1.0  0.6431747724795821  0.9520266112425112  0.9309482729422196  1.0000
  H   H27       1.0  0.6431747726786463  0.5479733891450836  0.43094827297099875  1.0000
  H   H28       1.0  0.3568252276233573  0.047973389015885354  0.06905172684759923  1.0000
  H   H29       1.0  0.5201792665809599  0.8966904190637494  0.7228183183848574  1.0000
  H   H30       1.0  0.4798207334741601  0.39669041893455115  0.7771816818275877  1.0000
  H   H31       1.0  0.47982073367322414  0.10330958119464707  0.2771816818563668  1.0000
  H   H32       1.0  0.5201792667800239  0.6033095813238453  0.22281831841363656  1.0000
  H   H33       1.0  0.07750910860298084  0.8737668537701724  0.5603961505629335  1.0000
  H   H34       1.0  0.9224908913008945  0.37376685364097406  0.9396038491981061  1.0000
  H   H35       1.0  0.9224908908715702  0.12623314648822417  0.4396038492276391  1.0000
  H   H36       1.0  0.07750910880204501  0.6262331449267894  0.060396150591712765  1.0000
  H   H37       1.0  0.09322528280699326  0.0035765493669298546  0.4933585390779201  1.0000
  H   H38       1.0  0.9067747176462548  0.5035765494961281  0.0066414611920833505  1.0000
  H   H39       1.0  0.9067747174471907  0.9964234508914667  0.5066414611633042  1.0000
  H   H40       1.0  0.0932252826079291  0.4964234507622684  0.9933585390491408  1.0000
  H   H41       1.0  0.059560009747213594  0.16785404956135805  0.5485757858732518  1.0000
  H   H42       1.0  0.9404399901566617  0.6678540496905563  0.9514242138877876  1.0000
  H   H43       1.0  0.9404399903557259  0.8321459506970385  0.45142421391656684  1.0000
  H   H44       1.0  0.059560009946277755  0.3321459505678402  0.04857578590203115  1.0000
  H   H45       1.0  0.13198472760525426  0.49869307656162526  0.5216349974601894  1.0000
  H   H46       1.0  0.8680152722986211  0.9986930766908235  0.9783650023008502  1.0000
  H   H47       1.0  0.8680152724976853  0.5013069236967712  0.4783650023296294  1.0000
  H   H48       1.0  0.1319847271759301  0.0013069235675729676  0.021634997489722512  1.0000
  H   H49       1.0  0.16456142624867867  0.33389634915446886  0.4660828548631114  1.0000
  H   H50       1.0  0.8354385740533249  0.8338963492836671  0.0339171449554866  1.0000
  H   H51       1.0  0.8354385740055053  0.6661036511039277  0.5339171453781127  1.0000
  H   H52       1.0  0.16456142604961455  0.1661036509747294  0.9660828548343322  1.0000
  H   H53       1.0  0.2302937730835752  0.5623133316478579  0.5006177777102316  1.0000
  H   H54       1.0  0.7697062268203001  0.06231333151865966  0.999382222050808  1.0000
  H   H55       1.0  0.7697062270193643  0.43768666861053857  0.49938222207958727  1.0000
  H   H56       1.0  0.23029377265425102  0.9376866687397369  0.0006177777397647187  1.0000
  H   H57       1.0  0.5400630583085598  0.5415385558492534  0.5574833216669192  1.0000
  H   H58       1.0  0.4599369415953156  0.041538555720055055  0.9425166780941205  1.0000
  H   H59       1.0  0.4599369411659914  0.4584614444091432  0.4425166781236536  1.0000
  H   H60       1.0  0.5400630585076238  0.9584614445383415  0.05748332169569835  1.0000
  H   H61       1.0  0.5912085440000857  0.8705168738396825  0.6304072189763162  1.0000
  H   H62       1.0  0.4087914559037897  0.3705168737104842  0.8695927807847235  1.0000
  H   H63       1.0  0.40879145610285383  0.12948312641871407  0.36959278081350266  1.0000
  H   H64       1.0  0.5912085435707614  0.6294831265479124  0.1304072190058493  1.0000
  H   H65       1.0  0.6571081184619232  0.7818237703000587  0.5432200656910948  1.0000
  H   H66       1.0  0.3428918814419522  0.28182377017086047  0.9567799340699449  1.0000
  H   H67       1.0  0.3428918816410163  0.21817622995833774  0.45677993409872397  1.0000
  H   H68       1.0  0.6571081186609873  0.718176230087536  0.043220065719874017  1.0000
  H   H69       1.0  0.6667789200951426  0.08836100066131326  0.46992713241713013  1.0000
  H   H70       1.0  0.33322108035810566  0.5883610007905115  0.030072867852873296  1.0000
  H   H71       1.0  0.3332210801590415  0.9116389979064502  0.5300728678240941  1.0000
  H   H72       1.0  0.6667789198960784  0.411638999467885  0.9699271323883509  1.0000
  H   H73       1.0  0.5729829640678239  0.28052323888673153  0.6944748003676557  1.0000
  H   H74       1.0  0.4270170358360515  0.7805232390159298  0.8055251993933839  1.0000
  H   H75       1.0  0.42701703603511554  0.7194767613716649  0.30552519942216294  1.0000
  H   H76       1.0  0.572982964266888  0.2194767612424667  0.19447480039643497  1.0000
  H   H77       1.0  0.4984578559323586  0.4599735584155727  0.6464490424386082  1.0000
  H   H78       1.0  0.5015421439715166  0.959973558544771  0.8535509573224311  1.0000
  H   H79       1.0  0.5015421435421926  0.5400264418428239  0.3535509573519645  1.0000
  H   H80       1.0  0.49845785613142274  0.04002644171362557  0.1464490424673875  1.0000
  C   C1        1.0  0.12426966649273731  0.24842861669111369  0.7046732522546099  1.0000
  C   C2        1.0  0.8757303335623826  0.748428615129679  0.7953267479578352  1.0000
  C   C3        1.0  0.8757303337614466  0.7515713835672828  0.2953267479866143  1.0000
  C   C4        1.0  0.12426966606341312  0.25157138343808455  0.20467325228414301  1.0000
  C   C5        1.0  0.08911468038793739  0.04167831189855264  0.7177222370025985  1.0000
  C   C6        1.0  0.9108853196671824  0.541678312027751  0.7822777632098464  1.0000
  C   C7        1.0  0.9108853198662467  0.9583216883598439  0.28227776323862563  1.0000
  C   C8        1.0  0.08911467995861323  0.4583216882306456  0.21772223703213164  1.0000
  C   C9        1.0  0.002066124341768093  0.9916614972770879  0.6946647343136423  1.0000
  C   C10       1.0  0.9979338757133517  0.49166149714788954  0.8053352658988027  1.0000
  C   C11       1.0  0.9979338752840275  0.008338502981308686  0.30533526592833593  1.0000
  C   C12       1.0  0.0020661245408322235  0.5083385031105069  0.19466473434242143  1.0000
  C   C13       1.0  0.9495468994006014  0.15028198021277217  0.6581962363312326  1.0000
  C   C14       1.0  0.05045310065451837  0.6502819803419705  0.8418037638812125  1.0000
  C   C15       1.0  0.05045310085358249  0.8497180200456244  0.34180376390999156  1.0000
  C   C16       1.0  0.9495468995996657  0.3497180199164261  0.15819623636001182  1.0000
  C   C17       1.0  0.9830017944674107  0.35770725502238465  0.6446923139403672  1.0000
  C   C18       1.0  0.016998205587709304  0.857707255151583  0.855307686272078  1.0000
  C   C19       1.0  0.01699820563552894  0.6422927452360119  0.3553076858494517  1.0000
  C   C20       1.0  0.9830017946664746  0.1422927451068136  0.14469231396914628  1.0000
  C   C21       1.0  0.06998141653147717  0.4058160941744688  0.6678528174837092  1.0000
  C   C22       1.0  0.9300185833723983  0.9058160943036669  0.8321471822773305  1.0000
  C   C23       1.0  0.9300185835714623  0.5941839060839278  0.3321471823061096  1.0000
  C   C24       1.0  0.06998141673054131  0.09418390595472949  0.1678528175124884  1.0000
  C   C25       1.0  0.21621381631100012  0.2957278877689891  0.7294090300136831  1.0000
  C   C26       1.0  0.7837861835928753  0.7957278878981874  0.7705909697473565  1.0000
  C   C27       1.0  0.783786183163551  0.7042721124894075  0.2705909697768897  1.0000
  C   C28       1.0  0.2162138165100643  0.20427211236020915  0.22940903004246233  1.0000
  C   C29       1.0  0.26504812001171346  0.14943901875517648  0.7746429888153783  1.0000
  C   C30       1.0  0.7349518800434063  0.6494390188843747  0.7253570113970664  1.0000
  C   C31       1.0  0.7349518802424706  0.85056098150322  0.22535701142584574  1.0000
  C   C32       1.0  0.2650481202107776  0.3505609813740218  0.2746429888441576  1.0000
  C   C33       1.0  0.4590835747102485  0.9476449367849459  0.6933320473989678  1.0000
  C   C34       1.0  0.5409164253448713  0.4476449383463807  0.8066679528134771  1.0000
  C   C35       1.0  0.5409164255439354  0.05235506178281754  0.3066679528422563  1.0000
  C   C36       1.0  0.4590835742809244  0.5523550619120159  0.19333204742850105  1.0000
  C   C37       1.0  0.325165359751846  0.9602948650406234  0.6428314531739234  1.0000
  C   C38       1.0  0.6748346401520293  0.4602948649114252  0.8571685465871163  1.0000
  C   C39       1.0  0.6748346403510934  0.03970513521777309  0.3571685466158954  1.0000
  C   C40       1.0  0.3251653599509101  0.5397051336563383  0.14283145320270257  1.0000
  C   C41       1.0  0.23827895439980262  0.9183126584756787  0.6158505894253399  1.0000
  C   C42       1.0  0.7617210456553172  0.41831265834648046  0.884149410787105  1.0000
  C   C43       1.0  0.7617210458543814  0.08168734009208477  0.38414941081588433  1.0000
  C   C44       1.0  0.23827895397047846  0.581687340221283  0.115850589454873  1.0000
  C   C45       1.0  0.19428889080446468  0.0707719015663292  0.5728459479555781  1.0000
  C   C46       1.0  0.8057111092506551  0.5707719016955274  0.9271540522568671  1.0000
  C   C47       1.0  0.8057111092984748  0.9292280986920674  0.42715405183424077  1.0000
  C   C48       1.0  0.1942888903751405  0.42922809856286903  0.07284594798511117  1.0000
  C   C49       1.0  0.2368785347812355  0.2661916819237304  0.5568351794836067  1.0000
  C   C50       1.0  0.7631214651226399  0.7661916820529286  0.943164820277433  1.0000
  C   C51       1.0  0.7631214653217039  0.7338083183346662  0.4431648203062122  1.0000
  C   C52       1.0  0.23687853498029965  0.23380831820546788  0.05683517951238585  1.0000
  C   C53       1.0  0.32374004988005617  0.30843261789397036  0.5837179929508083  1.0000
  C   C54       1.0  0.6762599500238191  0.8084326180231687  0.9162820068102313  1.0000
  C   C55       1.0  0.6762599502228833  0.6915673823644262  0.41628200683901057  1.0000
  C   C56       1.0  0.32374004945073204  0.19156738223522787  0.08371799298034144  1.0000
  C   C57       1.0  0.36664376585969044  0.15338370177131305  0.6263997039014193  1.0000
  C   C58       1.0  0.633356234044185  0.6533837019005113  0.8736002958596204  1.0000
  C   C59       1.0  0.633356234243249  0.8466162984870834  0.3736002958883996  1.0000
  C   C60       1.0  0.36664376605875454  0.3466162983578852  0.12639970393019842  1.0000
  C   C61       1.0  0.10148341005441944  0.026460905499535354  0.5423234712003113  1.0000
  C   C62       1.0  0.8985165900007003  0.5264609056287336  0.9576765290121337  1.0000
  C   C63       1.0  0.8985165895713763  0.973539094758861  0.4576765290416668  1.0000
  C   C64       1.0  0.10148341010223907  0.4735390946296629  0.04232347077768511  1.0000
  C   C65       1.0  0.18871419915089407  0.4243128941372367  0.5089731898548803  1.0000
  C   C66       1.0  0.8112858009042258  0.9243128942664349  0.9910268103575648  1.0000
  C   C67       1.0  0.8112858011032898  0.5756871061211598  0.491026810386344  1.0000
  C   C68       1.0  0.18871419934995823  0.07568710599196153  0.008973189883659433  1.0000
  C   C69       1.0  0.5667589605682026  0.37212915603264346  0.5560200562860311  1.0000
  C   C70       1.0  0.43324103948691717  0.8721291561618417  0.9439799439264138  1.0000
  C   C71       1.0  0.433241039057593  0.6278708442257531  0.443979943955947  1.0000
  C   C72       1.0  0.5667589607672668  0.1278708440965548  0.056020056314810336  1.0000
  C   C73       1.0  0.5604106445963477  0.21559322504135345  0.6005123606082815  1.0000
  C   C74       1.0  0.43958935530752763  0.7155932251705518  0.8994876391527582  1.0000
  C   C75       1.0  0.4395893555065918  0.784406775217043  0.3994876391815374  1.0000
  C   C76       1.0  0.5604106441670236  0.2844067750878448  0.10051236063781457  1.0000
  C   C77       1.0  0.5932601183746814  0.9985826259450735  0.5963061444715362  1.0000
  C   C78       1.0  0.4067398816804385  0.4985826258158752  0.903693855740909  1.0000
  C   C79       1.0  0.40673988125111427  0.0014173743133229946  0.403693855770442  1.0000
  C   C80       1.0  0.5932601185737454  0.5014173744425212  0.09630614450031531  1.0000
  C   C81       1.0  0.6310499622015864  0.949032244880663  0.5484370480159625  1.0000
  C   C82       1.0  0.3689500378535333  0.4490322447514647  0.9515629521964825  1.0000
  C   C83       1.0  0.3689500380525975  0.05096775537773358  0.4515629522252617  1.0000
  C   C84       1.0  0.6310499617722622  0.5509677538162988  0.0484370480454956  1.0000
  C   C85       1.0  0.6357080510602854  0.11981860924178434  0.5070089286929098  1.0000
  C   C86       1.0  0.3642919489948345  0.6198186093709827  0.9929910715195351  1.0000
  C   C87       1.0  0.3642919491938987  0.8801813910166122  0.49299107154831445  1.0000
  C   C88       1.0  0.6357080512593495  0.38018139088741393  0.007008928721688968  1.0000
  C   C89       1.0  0.522590776685376  0.28563796674934144  0.6525325985038575  1.0000
  C   C90       1.0  0.4774092233697439  0.7856379668785397  0.8474674017085876  1.0000
  C   C91       1.0  0.47740922356880805  0.7143620335090551  0.34746740173736673  1.0000
  C   C92       1.0  0.5225907762560518  0.21436203337985682  0.15253259853339063  1.0000
  N   N1        1.0  0.2533882478824767  0.4691996859975673  0.7104569114404257  1.0000
  N   N2        1.0  0.7466117520213986  0.9691996861267654  0.789543088320614  1.0000
  N   N3        1.0  0.7466117515920745  0.5308003142608293  0.28954308835014714  1.0000
  N   N4        1.0  0.2533882480815409  0.03080031413163102  0.21045691146920478  1.0000
  N   N5        1.0  0.3059290248731309  0.035466207668515694  0.8125778837345492  1.0000
  N   N6        1.0  0.6940709751819889  0.5354662077977139  0.6874221164778959  1.0000
  N   N7        1.0  0.6940709753810531  0.9645337925898808  0.18742211650667503  1.0000
  N   N8        1.0  0.305929025072195  0.46453379246068255  0.31257788376332835  1.0000
  N   N9        1.0  0.4516948819628393  0.14028941429551103  0.6596166233573143  1.0000
  N   N10       1.0  0.548305117941036  0.6402894144247093  0.8403833764037254  1.0000
  N   N11       1.0  0.5483051181401002  0.8597105859628854  0.34038337643250455  1.0000
  N   N12       1.0  0.45169488153351517  0.3597105858336872  0.1596166233868474  1.0000
  N   N13       1.0  0.38481905358036866  0.8357618816695077  0.6848061662829003  1.0000
  N   N14       1.0  0.615180946474751  0.33576188154030956  0.8151938339295446  1.0000
  N   N15       1.0  0.6151809466738153  0.16423811689825568  0.31519383395832384  1.0000
  N   N16       1.0  0.3848190537794328  0.664238117027454  0.1848061663116795  1.0000
  N   N17       1.0  0.6039034889783664  0.32840015869193223  0.5101262198541424  1.0000
  N   N18       1.0  0.3960965109255089  0.8284001588211305  0.9898737799068974  1.0000
  N   N19       1.0  0.39609651112457295  0.6715998415664644  0.48987377993567643  1.0000
  N   N20       1.0  0.6039034885490423  0.17159984143726606  0.010126219883675508  1.0000
  O   O1        1.0  0.3385396774298064  0.48926347453328833  0.7364610021708348  1.0000
  O   O2        1.0  0.6614603226253134  0.9892634746624865  0.7635389980416102  1.0000
  O   O3        1.0  0.6614603220447448  0.5107365257251082  0.263538997619738  1.0000
  O   O4        1.0  0.33853967762887055  0.010736525595909967  0.23646100219961394  1.0000
  Br  Br1       1.0  0.8303734736171028  0.08562810760214981  0.6267607206805553  1.0000
  Br  Br2       1.0  0.16962652628677252  0.5856281077313481  0.8732392790804844  1.0000
  Br  Br3       1.0  0.16962652585744833  0.9143718926562467  0.3732392791100174  1.0000
  Br  Br4       1.0  0.830373473816167  0.4143718925270484  0.1267607207093345  1.0000
