data_image0
_chemical_formula_structural       H40C60N4O8S4Cl12
_chemical_formula_sum              "H40 C60 N4 O8 S4 Cl12"
_cell_length_a       14.129276847857767
_cell_length_b       9.84154192239143
_cell_length_c       11.090571094401962
_cell_angle_alpha    90.0
_cell_angle_beta     93.45209572000205
_cell_angle_gamma    90.0

_space_group_name_H-M_alt    "P 1"
_space_group_IT_number       1

loop_
  _space_group_symop_operation_xyz
  'x, y, z'

loop_
  _atom_site_type_symbol
  _atom_site_label
  _atom_site_symmetry_multiplicity
  _atom_site_fract_x
  _atom_site_fract_y
  _atom_site_fract_z
  _atom_site_occupancy
  H   H1        1.0  0.08878479915111645  0.011877426415676537  0.0017428030454169272  1.0000
  H   H2        1.0  0.9112152005579167  0.5118774262941799  0.49825719642160315  1.0000
  H   H3        1.0  0.9112152005648068  0.9881225733413299  0.9982571964824402  1.0000
  H   H4        1.0  0.08878479915800651  0.4881225734628267  0.501742803106254  1.0000
  H   H5        1.0  0.22460412333806873  0.9911583628787423  0.8729781286334525  1.0000
  H   H6        1.0  0.7753958764191319  0.49115836300023896  0.6270218718584855  1.0000
  H   H7        1.0  0.7753958764122417  0.008841636878264279  0.12702187179764843  1.0000
  H   H8        1.0  0.22460412333117868  0.5088416367567676  0.3729781285726153  1.0000
  H   H9        1.0  0.3537531983766735  0.34547745026257176  0.04451747169735392  1.0000
  H   H10       1.0  0.6462468013323596  0.8454774501410749  0.45548252776966613  1.0000
  H   H11       1.0  0.6462468013392496  0.6545225494944349  0.9554825278305031  1.0000
  H   H12       1.0  0.3537531983835636  0.15452254961593154  0.544517471758191  1.0000
  H   H13       1.0  0.21710693381358379  0.3641391245660809  0.17611666657273647  1.0000
  H   H14       1.0  0.7828930666380393  0.8641391244445842  0.32388333380812534  1.0000
  H   H15       1.0  0.7828930666449293  0.6358608751909257  0.8238833338689624  1.0000
  H   H16       1.0  0.2171069338204738  0.13586087531242239  0.6761166666335735  1.0000
  H   H17       1.0  0.3608806698954712  0.45045284823851806  0.661969672630878  1.0000
  H   H18       1.0  0.639119330569932  0.9504528491331222  0.8380303278716578  1.0000
  H   H19       1.0  0.6391193305630418  0.5495471515184885  0.3380303278108208  1.0000
  H   H20       1.0  0.3608806698885811  0.049547151639985236  0.16196967257004102  1.0000
  H   H21       1.0  0.31512294800137736  0.6757190511854331  0.5732078475873814  1.0000
  H   H22       1.0  0.6848770524640257  0.17571905130692977  0.9267921529151543  1.0000
  H   H23       1.0  0.6848770524571356  0.32428094857157347  0.4267921528543174  1.0000
  H   H24       1.0  0.3151229479944873  0.8242809484500767  0.07320784752654443  1.0000
  H   H25       1.0  0.35345904709697124  0.8876116414365016  0.6886513546758029  1.0000
  H   H26       1.0  0.6465409526258421  0.38761164155799827  0.8113486449128915  1.0000
  H   H27       1.0  0.6465409526533392  0.11238835832050503  0.311348645755298  1.0000
  H   H28       1.0  0.35345904709008114  0.6123883581990083  0.18865135461496574  1.0000
  H   H29       1.0  0.4370849027589333  0.8746220153181447  0.892090700800953  1.0000
  H   H30       1.0  0.56291509696388  0.37462201442354043  0.6079092987877412  1.0000
  H   H31       1.0  0.5629150969569898  0.12537798545496287  0.10790929872690418  1.0000
  H   H32       1.0  0.43708490275204326  0.6253779853334661  0.3920907007401159  1.0000
  H   H33       1.0  0.48243558925958896  0.6507552119885462  0.9802944248532831  1.0000
  H   H34       1.0  0.5175644104632243  0.15075521211004295  0.519705574735411  1.0000
  H   H35       1.0  0.5175644104563343  0.34924478776846035  0.019705574674573987  1.0000
  H   H36       1.0  0.48243558925269886  0.8492447876469637  0.4802944247924461  1.0000
  H   H37       1.0  0.44617797674592596  0.4376114864888451  0.8621973225002336  1.0000
  H   H38       1.0  0.5538220236850898  0.9376114863673484  0.6378026770990587  1.0000
  H   H39       1.0  0.5538220236781998  0.5623885142842624  0.1378026770382216  1.0000
  H   H40       1.0  0.4461779767390359  0.06238851338965818  0.3621973224393965  1.0000
  C   C1        1.0  0.09160725953812666  0.9610629802308137  0.46737640282414494  1.0000
  C   C2        1.0  0.9083927402052938  0.4610629803523105  0.032623597546118835  1.0000
  C   C3        1.0  0.908392740212184  0.03893701952619279  0.5326235976069559  1.0000
  C   C4        1.0  0.09160725954501672  0.5389370194046961  0.9673764028849822  1.0000
  C   C5        1.0  0.03655896167020551  0.060787413671315356  0.3922303473682265  1.0000
  C   C6        1.0  0.963441038073215  0.5607874135498186  0.1077696530020373  1.0000
  C   C7        1.0  0.9634410380801051  0.9392125860856911  0.6077696530628743  1.0000
  C   C8        1.0  0.03655896167709556  0.4392125862071879  0.8922303474290635  1.0000
  C   C9        1.0  0.9422751767514672  0.09657063674520812  0.4317095746523639  1.0000
  C   C10       1.0  0.05772482370015558  0.5965706366237113  0.06829042572849789  1.0000
  C   C11       1.0  0.05772482370704563  0.9034293630117983  0.568290425789335  1.0000
  C   C12       1.0  0.9422751767583576  0.40342936313329514  0.9317095747132011  1.0000
  C   C13       1.0  0.14668321069464255  0.18793290163118784  0.09836290262341857  1.0000
  C   C14       1.0  0.8533167890143906  0.6879329015096911  0.4016370968436015  1.0000
  C   C15       1.0  0.8533167890212806  0.8120670991419197  0.9016370969044386  1.0000
  C   C16       1.0  0.1466832107015326  0.31206709926341636  0.5983629026842556  1.0000
  C   C17       1.0  0.14725799219716815  0.08353457989439046  0.013072815554305742  1.0000
  C   C18       1.0  0.8527420075462524  0.5835345797728938  0.48692718481595804  1.0000
  C   C19       1.0  0.8527420075531424  0.9164654208787171  0.986927184876795  1.0000
  C   C20       1.0  0.1472579922040582  0.4164654199841128  0.5130728156151427  1.0000
  C   C21       1.0  0.22341694313957303  0.07243376653998744  0.939565710659365  1.0000
  C   C22       1.0  0.7765830573258301  0.5724337664184908  0.560434289843171  1.0000
  C   C23       1.0  0.7765830573189401  0.92756623423312  0.060434289782333936  1.0000
  C   C24       1.0  0.22341694313268295  0.42756623435461677  0.43956571059852795  1.0000
  C   C25       1.0  0.29711061241578934  0.16716493035069416  0.9519807112511444  1.0000
  C   C26       1.0  0.7028893873070239  0.6671649302291974  0.5480192883375498  1.0000
  C   C27       1.0  0.7028893873001338  0.8328350704224134  0.048019288276712715  1.0000
  C   C28       1.0  0.2971106124088993  0.3328350695278091  0.4519807111903073  1.0000
  C   C29       1.0  0.29595126880117667  0.2724973516495819  0.036462135811296544  1.0000
  C   C30       1.0  0.7040487309422438  0.7724973515280852  0.46353786455896717  1.0000
  C   C31       1.0  0.7040487309491339  0.7275026491235256  0.9635378646198043  1.0000
  C   C32       1.0  0.29595126880806666  0.2275026492450223  0.5364621358721336  1.0000
  C   C33       1.0  0.2201403072793621  0.28256550771510247  0.1103251216367734  1.0000
  C   C34       1.0  0.7798596931722608  0.7825655075936058  0.38967487874408846  1.0000
  C   C35       1.0  0.7798596931791508  0.7174344930580051  0.8896748788049256  1.0000
  C   C36       1.0  0.22014030728625214  0.21743449216340083  0.6103251216976104  1.0000
  C   C37       1.0  0.37807282235644596  0.5437632102978055  0.7114146046392154  1.0000
  C   C38       1.0  0.6219271781089571  0.0437632104193022  0.7885853958633207  1.0000
  C   C39       1.0  0.6219271781020671  0.4562367904753021  0.2885853958024836  1.0000
  C   C40       1.0  0.3780728223495559  0.9562367903538053  0.2114146045783782  1.0000
  C   C41       1.0  0.35219016507828677  0.6698833396218487  0.6621375602396568  1.0000
  C   C42       1.0  0.6478098346789137  0.1698833397433454  0.8378624402522812  1.0000
  C   C43       1.0  0.6478098346720238  0.3301166601351579  0.337862440191444  1.0000
  C   C44       1.0  0.35219016507139667  0.8301166600136612  0.16213756017881972  1.0000
  C   C45       1.0  0.3736455094887214  0.7889712121566851  0.7270526961822248  1.0000
  C   C46       1.0  0.6263544902340918  0.2889712112620809  0.7729473034064692  1.0000
  C   C47       1.0  0.6263544902272019  0.21102878861642235  0.2729473033456323  1.0000
  C   C48       1.0  0.37364550948183134  0.7110287884949257  0.22705269612138781  1.0000
  C   C49       1.0  0.4206358766734435  0.7818513176774903  0.8413795241646427  1.0000
  C   C50       1.0  0.5793641230837572  0.281851317798987  0.6586204763272954  1.0000
  C   C51       1.0  0.5793641230768671  0.2181486820795163  0.15862047626645828  1.0000
  C   C52       1.0  0.42063587666655344  0.7181486819580196  0.3413795241038055  1.0000
  C   C53       1.0  0.4465575234001659  0.6554863405420978  0.8905663338707709  1.0000
  C   C54       1.0  0.5534424763570347  0.15548634066359446  0.609433666621167  1.0000
  C   C55       1.0  0.5534424763501447  0.34451365921490884  0.10943366656032993  1.0000
  C   C56       1.0  0.44655752339327587  0.8445136590934121  0.39056633380993383  1.0000
  C   C57       1.0  0.4257385074062175  0.536671633535712  0.8253855640541864  1.0000
  C   C58       1.0  0.5742614923165958  0.0366716336572087  0.6746144355345078  1.0000
  C   C59       1.0  0.5742614923097058  0.46332836622129453  0.17461443547367086  1.0000
  C   C60       1.0  0.4257385073993274  0.9633283660997978  0.3253855639933492  1.0000
  N   N1        1.0  0.07923912374786496  0.10476042759664157  0.2997179859428906  1.0000
  N   N2        1.0  0.9207608766693706  0.6047604274751448  0.20028201353472747  1.0000
  N   N3        1.0  0.9207608766762606  0.895239573176466  0.7002820135955645  1.0000
  N   N4        1.0  0.07923912375475503  0.39523957228186174  0.7997179860037278  1.0000
  O   O1        1.0  0.9665363973126504  0.1564040129217852  0.11731632149414692  1.0000
  O   O2        1.0  0.03346360310458531  0.6564040128002885  0.3826836779834712  1.0000
  O   O3        1.0  0.03346360311147535  0.8435959868352214  0.8826836780443083  1.0000
  O   O4        1.0  0.9665363973195404  0.34359598695671806  0.617316321554984  1.0000
  O   O5        1.0  0.05016620985535659  0.3454350697084585  0.23328663078547418  1.0000
  O   O6        1.0  0.9498337898880638  0.8454350695869618  0.2667133695847896  1.0000
  O   O7        1.0  0.9498337898949539  0.6545649300485481  0.7667133696456266  1.0000
  O   O8        1.0  0.05016620986224663  0.1545649301700448  0.7332866308463113  1.0000
  S   S1        1.0  0.04824175541311561  0.20727283550546738  0.18822817105435133  1.0000
  S   S2        1.0  0.9517582442959175  0.7072728353839707  0.31177182841266876  1.0000
  S   S3        1.0  0.9517582443028075  0.7927271642515392  0.8117718284735057  1.0000
  S   S4        1.0  0.04824175542000566  0.2927271643730359  0.6882281711151883  1.0000
  Cl  Cl1       1.0  0.19959382799849415  0.9172657629452462  0.4200845037632668  1.0000
  Cl  Cl2       1.0  0.8004061724187415  0.4172657630667429  0.0799154957143514  1.0000
  Cl  Cl3       1.0  0.8004061724256316  0.08273423681176038  0.5799154957751884  1.0000
  Cl  Cl4       1.0  0.19959382800538422  0.5827342366902637  0.9200845038241038  1.0000
  Cl  Cl5       1.0  0.8751742688519962  0.21265592287305404  0.35238971918094725  1.0000
  Cl  Cl6       1.0  0.12482573156523939  0.7126559227515573  0.1476102802966709  1.0000
  Cl  Cl7       1.0  0.12482573157212944  0.7873440779000535  0.647610280357508  1.0000
  Cl  Cl8       1.0  0.8751742688588863  0.28734407802155015  0.8523897192417842  1.0000
  Cl  Cl9       1.0  0.3925039438309267  0.1538510461003123  0.8617453181686564  1.0000
  Cl  Cl10      1.0  0.6074960566344764  0.6538510459788156  0.6382546823338794  1.0000
  Cl  Cl11      1.0  0.6074960566275863  0.8461489536566943  0.13825468227304233  1.0000
  Cl  Cl12      1.0  0.39250394382403664  0.346148953778191  0.3617453181078195  1.0000
