data_image0
_chemical_formula_structural       H40C48N16O32Cl8
_chemical_formula_sum              "H40 C48 N16 O32 Cl8"
_cell_length_a       19.57160554563425
_cell_length_b       5.184125658071238
_cell_length_c       16.609693710587102
_cell_angle_alpha    90.0
_cell_angle_beta     118.12684356555366
_cell_angle_gamma    90.0

_space_group_name_H-M_alt    "P 1"
_space_group_IT_number       1

loop_
  _space_group_symop_operation_xyz
  'x, y, z'

loop_
  _atom_site_type_symbol
  _atom_site_label
  _atom_site_symmetry_multiplicity
  _atom_site_fract_x
  _atom_site_fract_y
  _atom_site_fract_z
  _atom_site_occupancy
  H   H1        1.0  0.3127173394358847  0.768337853423472  0.43042449383072057  1.0000
  H   H2        1.0  0.6872826604861789  0.768337853423472  0.06957550566800345  1.0000
  H   H3        1.0  0.8127173398521915  0.26833785323744636  0.43042449433383395  1.0000
  H   H4        1.0  0.18728266034228855  0.26833785323744636  0.06957550584756769  1.0000
  H   H5        1.0  0.6872826603928782  0.23166214694857937  0.5695755062085336  1.0000
  H   H6        1.0  0.3127173395814909  0.23166214694857937  0.9304244936895217  1.0000
  H   H7        1.0  0.18728266048789471  0.7316621471346052  0.5695755057063688  1.0000
  H   H8        1.0  0.8127173394864743  0.7316621471346052  0.9304244941916864  1.0000
  H   H9        1.0  0.46783018724625786  0.8698074424526298  0.382952868323732  1.0000
  H   H10       1.0  0.5321698129482221  0.8698074424526298  0.11704713185766963  1.0000
  H   H11       1.0  0.9678301868788249  0.369807442266604  0.38295286814321916  1.0000
  H   H12       1.0  0.03216981280433178  0.369807442266604  0.11704713203723387  1.0000
  H   H13       1.0  0.5321698130938284  0.13019255791942172  0.6170471317164709  1.0000
  H   H14       1.0  0.4678301868805407  0.13019255791942172  0.8829528681815846  1.0000
  H   H15       1.0  0.032169812949938016  0.6301925581054475  0.6170471318960351  1.0000
  H   H16       1.0  0.9678301870244311  0.6301925581054475  0.8829528680020203  1.0000
  H   H17       1.0  0.4681569424118375  0.068583516961331  0.29639595069389824  1.0000
  H   H18       1.0  0.5318430577826425  0.068583516961331  0.2036040494875034  1.0000
  H   H19       1.0  0.9681569425557278  0.5685835171473568  0.296395950514334  1.0000
  H   H20       1.0  0.031843057638752136  0.5685835171473568  0.20360404966706763  1.0000
  H   H21       1.0  0.5318430574169254  0.9314164834107205  0.7036040493453559  1.0000
  H   H22       1.0  0.4681569425574437  0.9314164834107205  0.7963959505526994  1.0000
  H   H23       1.0  0.031843057784358336  0.4314164832246947  0.7036040495258687  1.0000
  H   H24       1.0  0.9681569421900108  0.4314164832246947  0.7963959503721866  1.0000
  H   H25       1.0  0.5178863220220095  0.31803129760813065  0.45681074050157405  1.0000
  H   H26       1.0  0.48211367817247053  0.31803129760813065  0.04318925967982756  1.0000
  H   H27       1.0  0.017886322389442457  0.8180312977941564  0.45681074068208694  1.0000
  H   H28       1.0  0.9821136778050376  0.8180312977941564  0.04318925949931472  1.0000
  H   H29       1.0  0.48211367780675335  0.6819687027639209  0.5431892595376802  1.0000
  H   H30       1.0  0.5178863221676159  0.6819687027639209  0.9568107403603754  1.0000
  H   H31       1.0  0.9821136779506439  0.18196870257789513  0.5431892593581159  1.0000
  H   H32       1.0  0.017886322023725386  0.18196870257789513  0.9568107405399395  1.0000
  H   H33       1.0  0.27776377148543624  0.32361553917737734  0.30249002348995235  1.0000
  H   H34       1.0  0.7222362287090438  0.32361553917737734  0.19750997669144918  1.0000
  H   H35       1.0  0.7777637711180033  0.8236155393634031  0.3024900233094395  1.0000
  H   H36       1.0  0.22223622907647667  0.8236155393634031  0.19750997687196203  1.0000
  H   H37       1.0  0.72223622885465  0.6763844611946742  0.6975099765502504  1.0000
  H   H38       1.0  0.27776377111971917  0.6763844611946742  0.8024900233478051  1.0000
  H   H39       1.0  0.22223622871075957  0.17638446100864838  0.6975099767298145  1.0000
  H   H40       1.0  0.7777637712636095  0.17638446100864838  0.8024900231682407  1.0000
  C   C1        1.0  0.17597511604371147  0.36466665059645853  0.4752945965571037  1.0000
  C   C2        1.0  0.8240248841507685  0.36466665059645853  0.024705403624297892  1.0000
  C   C3        1.0  0.6759751161876019  0.8646666507824844  0.47529459637753946  1.0000
  C   C4        1.0  0.3240248837344618  0.8646666507824844  0.0247054031211846  1.0000
  C   C5        1.0  0.8240248837850515  0.635333349775593  0.5247054034821504  1.0000
  C   C6        1.0  0.17597511618931774  0.635333349775593  0.975294596415905  1.0000
  C   C7        1.0  0.32402488415248437  0.1353333495895672  0.5247054036626634  1.0000
  C   C8        1.0  0.6759751158218847  0.1353333495895672  0.975294596235392  1.0000
  C   C9        1.0  0.17995896746173812  0.14138134727866356  0.4253285287213213  1.0000
  C   C10       1.0  0.8200410327327419  0.14138134727866356  0.0746714714600803  1.0000
  C   C11       1.0  0.6799589670943053  0.6413813474646893  0.4253285285408085  1.0000
  C   C12       1.0  0.3200410331001748  0.6413813474646893  0.07467147164059312  1.0000
  C   C13       1.0  0.8200410328783482  0.8586186530933879  0.5746714713188815  1.0000
  C   C14       1.0  0.17995896709602105  0.8586186530933879  0.9253285285791739  1.0000
  C   C15       1.0  0.3200410327344577  0.35861865290736217  0.5746714714984458  1.0000
  C   C16       1.0  0.6799589672399114  0.35861865290736217  0.9253285283996097  1.0000
  C   C17       1.0  0.24994104420231766  0.029737857484217933  0.44796990515633894  1.0000
  C   C18       1.0  0.750058955719746  0.029737857484217933  0.0520300943423851  1.0000
  C   C19       1.0  0.7499410441073011  0.5297378576702437  0.4479699056585037  1.0000
  C   C20       1.0  0.25005895608717893  0.5297378576702437  0.05203009452289794  1.0000
  C   C21       1.0  0.7500589561377686  0.970262140958868  0.5520300948838638  1.0000
  C   C22       1.0  0.24994104410901685  0.970262140958868  0.947969905696869  1.0000
  C   C23       1.0  0.2500589557214618  0.4702621427018078  0.5520300943807505  1.0000
  C   C24       1.0  0.7499410442529073  0.4702621427018078  0.9479699055173049  1.0000
  C   C25       1.0  0.39865266706992325  0.38985048266594846  0.3956515636764117  1.0000
  C   C26       1.0  0.6013473326132334  0.38985048266594846  0.10434843650404133  1.0000
  C   C27       1.0  0.8986526672138136  0.8898504828519742  0.3956515634968474  1.0000
  C   C28       1.0  0.10134733270825  0.8898504828519742  0.10434843600187663  1.0000
  C   C29       1.0  0.6013473327588396  0.6101495157771374  0.6043484363628424  1.0000
  C   C30       1.0  0.3986526672155295  0.6101495157771374  0.8956515635352129  1.0000
  C   C31       1.0  0.10134733261494924  0.11014951559111169  0.6043484365424068  1.0000
  C   C32       1.0  0.8986526676318362  0.11014951559111169  0.8956515640383262  1.0000
  C   C33       1.0  0.35786409126710744  0.051842705545064316  0.29600489231707994  1.0000
  C   C34       1.0  0.6421359086549562  0.051842705545064316  0.20399510718164418  1.0000
  C   C35       1.0  0.8578640911720908  0.5518427057310901  0.29600489281924464  1.0000
  C   C36       1.0  0.1421359085110659  0.5518427057310901  0.20399510736120843  1.0000
  C   C37       1.0  0.6421359085616555  0.9481572948269872  0.7039951077221743  1.0000
  C   C38       1.0  0.35786409141271364  0.9481572948269872  0.7960048921758811  1.0000
  C   C39       1.0  0.14213590865667208  0.44815729464096143  0.7039951072200096  1.0000
  C   C40       1.0  0.857864091317697  0.44815729464096143  0.7960048926780458  1.0000
  C   C41       1.0  0.44561223612736434  0.05096882047768624  0.34556113923827164  1.0000
  C   C42       1.0  0.5543877640671158  0.05096882047768624  0.15443886094312995  1.0000
  C   C43       1.0  0.9456122357599313  0.550968820663712  0.3455611390577588  1.0000
  C   C44       1.0  0.054387764162132306  0.550968820663712  0.15443886044096525  1.0000
  C   C45       1.0  0.554387764212722  0.9490311798943654  0.6544388608019311  1.0000
  C   C46       1.0  0.44561223576164716  0.9490311798943654  0.8455611390961242  1.0000
  C   C47       1.0  0.054387764068831494  0.44903117970833945  0.6544388609814953  1.0000
  C   C48       1.0  0.9456122359055378  0.44903117970833945  0.84556113891656  1.0000
  N   N1        1.0  0.46343716175177363  0.2722747003252913  0.40531888941725025  1.0000
  N   N2        1.0  0.5365628384427064  0.2722747003252913  0.09468111076415137  1.0000
  N   N3        1.0  0.9634371618956641  0.7722747005113171  0.40531888923768605  1.0000
  N   N4        1.0  0.03656283829881596  0.7722747005113171  0.09468111094371562  1.0000
  N   N5        1.0  0.5365628380769892  0.7277253000467602  0.5946811106220039  1.0000
  N   N6        1.0  0.4634371618973799  0.7277253000467602  0.9053188892760514  1.0000
  N   N7        1.0  0.036562838444422194  0.22772529986073445  0.5946811108025168  1.0000
  N   N8        1.0  0.9634371615299469  0.22772529986073445  0.9053188890955386  1.0000
  N   N9        1.0  0.3349911109296937  0.26066902870999625  0.32748190959503576  1.0000
  N   N10       1.0  0.6650088892647864  0.26066902870999625  0.1725180905863659  1.0000
  N   N11       1.0  0.834991111073584  0.760669028896022  0.3274819094154715  1.0000
  N   N12       1.0  0.16500888912089595  0.760669028896022  0.17251809076593017  1.0000
  N   N13       1.0  0.6650088888990693  0.7393309716620552  0.6725180904442184  1.0000
  N   N14       1.0  0.3349911110752999  0.7393309716620552  0.8274819094538369  1.0000
  N   N15       1.0  0.16500888926650215  0.23933097147602947  0.6725180906247313  1.0000
  N   N16       1.0  0.8349911107078669  0.23933097147602947  0.827481909273324  1.0000
  O   O1        1.0  0.11510318966925298  0.4762254163643335  0.4597838088751051  1.0000
  O   O2        1.0  0.8848968102528108  0.4762254163643335  0.040216190623618926  1.0000
  O   O3        1.0  0.6151031895742364  0.9762254146213937  0.4597838093772698  1.0000
  O   O4        1.0  0.3848968106202436  0.9762254146213937  0.04021619080413177  1.0000
  O   O5        1.0  0.8848968103984168  0.5237745840077179  0.5402161904824201  1.0000
  O   O6        1.0  0.11510318957595221  0.5237745840077179  0.9597838094156352  1.0000
  O   O7        1.0  0.3848968102545265  0.02377458382169222  0.5402161906619843  1.0000
  O   O8        1.0  0.6151031897198426  0.02377458382169222  0.959783809236071  1.0000
  O   O9        1.0  0.25709378997996113  0.8247840642795707  0.40508112979544486  1.0000
  O   O10       1.0  0.742906210214519  0.8247840642795707  0.09491887038595677  1.0000
  O   O11       1.0  0.7570937896125282  0.324784064093545  0.405081129614932  1.0000
  O   O12       1.0  0.24290620979821217  0.324784064093545  0.09491886988284347  1.0000
  O   O13       1.0  0.742906210360125  0.1752159360924808  0.5949188702447579  1.0000
  O   O14       1.0  0.257093789614244  0.1752159360924808  0.9050811296532973  1.0000
  O   O15       1.0  0.2429062102162347  0.6752159362785065  0.5949188704243222  1.0000
  O   O16       1.0  0.7570937900305508  0.6752159362785065  0.9050811301564107  1.0000
  O   O17       1.0  0.3939925706179548  0.5794256675324445  0.439465685639329  1.0000
  O   O18       1.0  0.6060074295765252  0.5794256675324445  0.060534314542072684  1.0000
  O   O19       1.0  0.8939925702505218  0.07942566734641868  0.43946568545881615  1.0000
  O   O20       1.0  0.10600742994395813  0.07942566734641868  0.06053431472258552  1.0000
  O   O21       1.0  0.6060074297221314  0.4205743328396071  0.5605343144008739  1.0000
  O   O22       1.0  0.39399257025223766  0.4205743328396071  0.9394656854971815  1.0000
  O   O23       1.0  0.106007429578241  0.9205743330256327  0.560534314580438  1.0000
  O   O24       1.0  0.8939925703961281  0.9205743330256327  0.9394656853176173  1.0000
  O   O25       1.0  0.3159341408541443  0.8918527761381795  0.2392688803965275  1.0000
  O   O26       1.0  0.6840658593403358  0.8918527761381795  0.2607311197848741  1.0000
  O   O27       1.0  0.8159341404867113  0.3918527759521537  0.23926888021601467  1.0000
  O   O28       1.0  0.18406585970776862  0.3918527759521537  0.26073111996538695  1.0000
  O   O29       1.0  0.6840658594859419  0.10814722230490652  0.7607311196436752  1.0000
  O   O30       1.0  0.3159341404884272  0.10814722230490652  0.7392688802543801  1.0000
  O   O31       1.0  0.18406585934205155  0.6081472224909322  0.7607311198232396  1.0000
  O   O32       1.0  0.8159341406323176  0.6081472224909322  0.7392688800748158  1.0000
  Cl  Cl1       1.0  0.09485412591641385  0.028034403404888084  0.33870316588893074  1.0000
  Cl  Cl2       1.0  0.9051458734943265  0.028034403404888084  0.16129683360884475  1.0000
  Cl  Cl3       1.0  0.5948541263327205  0.5280344035909138  0.33870316639204406  1.0000
  Cl  Cl4       1.0  0.4051458738617595  0.5280344035909138  0.1612968337893576  1.0000
  Cl  Cl5       1.0  0.9051458736399328  0.9719655950381979  0.661296833467646  1.0000
  Cl  Cl6       1.0  0.09485412633443638  0.9719655950381979  0.8387031664304094  1.0000
  Cl  Cl7       1.0  0.4051458734960423  0.47196559485217204  0.6612968336472101  1.0000
  Cl  Cl8       1.0  0.5948541264783268  0.47196559485217204  0.8387031662508453  1.0000
