data_image0
_chemical_formula_structural       H42C40N12O4I2
_chemical_formula_sum              "H42 C40 N12 O4 I2"
_cell_length_a       10.021416937039028
_cell_length_b       10.58313111598109
_cell_length_c       10.970775028274078
_cell_angle_alpha    78.2286219305886
_cell_angle_beta     81.09076974503674
_cell_angle_gamma    62.83528303770975

_space_group_name_H-M_alt    "P 1"
_space_group_IT_number       1

loop_
  _space_group_symop_operation_xyz
  'x, y, z'

loop_
  _atom_site_type_symbol
  _atom_site_label
  _atom_site_symmetry_multiplicity
  _atom_site_fract_x
  _atom_site_fract_y
  _atom_site_fract_z
  _atom_site_occupancy
  H   H1        1.0  0.9396353222558641  0.09344671971470153  0.5251905632925427  1.0000
  H   H2        1.0  0.060364678065993826  0.9065532796862303  0.4748094369999176  1.0000
  H   H3        1.0  0.8680153963440612  0.16656895156888277  0.7370901270849267  1.0000
  H   H4        1.0  0.13198460353272579  0.8334310490579203  0.26290987227508145  1.0000
  H   H5        1.0  0.6899947354279137  0.42387715455586605  0.7568906221385813  1.0000
  H   H6        1.0  0.3100052643766248  0.5761228459069282  0.2431093781548453  1.0000
  H   H7        1.0  0.9785102748146461  0.2808692450375046  0.06628454810856947  1.0000
  H   H8        1.0  0.021489725507211795  0.7191307543634271  0.9337154521838911  1.0000
  H   H9        1.0  0.8338487397853731  0.45567484396092245  0.02500537747598931  1.0000
  H   H10       1.0  0.16615126001916522  0.5443251565018717  0.9749946228174373  1.0000
  H   H11       1.0  0.7731250762019054  0.47769660928786745  0.2280517269196648  1.0000
  H   H12       1.0  0.22687492360263306  0.5223033911749267  0.7719482733737617  1.0000
  H   H13       1.0  0.5885633848596037  0.6834292911915579  0.37178646317671404  1.0000
  H   H14       1.0  0.4114366155345027  0.31657070837338275  0.6282135361823279  1.0000
  H   H15       1.0  0.965605802087167  0.11959834124428316  0.9592327277272505  1.0000
  H   H16       1.0  0.03439419778961992  0.8804016593825199  0.0407672716327575  1.0000
  H   H17       1.0  0.8260381019015898  0.9984026929258525  0.9038126583683458  1.0000
  H   H18       1.0  0.1739618984925165  0.0015973066390881784  0.09618734099069613  1.0000
  H   H19       1.0  0.5453922391740664  0.10150308066461358  0.9482023278708419  1.0000
  H   H20       1.0  0.4546077606304719  0.8984969197981806  0.05179767242258464  1.0000
  H   H21       1.0  0.41252205739850706  0.318382103577758  0.05015295592238816  1.0000
  H   H22       1.0  0.587477942923351  0.6816178958231738  0.9498470443700723  1.0000
  H   H23       1.0  0.5548533170943977  0.4298483504704508  0.11570876808182592  1.0000
  H   H24       1.0  0.4451466832274604  0.5701516489304808  0.8842912322106345  1.0000
  H   H25       1.0  0.4470036794075409  0.9039791116236667  0.25704652425659497  1.0000
  H   H26       1.0  0.5529963209143172  0.09602088777726488  0.7429534760358654  1.0000
  H   H27       1.0  0.3008503663409633  0.1418230844151173  0.14149558504916115  1.0000
  H   H28       1.0  0.6991496339808945  0.8581769149858144  0.8585044152432993  1.0000
  H   H29       1.0  0.12339450077873601  0.4008162217959764  0.13975411274769242  1.0000
  H   H30       1.0  0.876605499543122  0.5991837776049554  0.860245887544768  1.0000
  H   H31       1.0  0.02796274099016903  0.49608180873498886  0.3421724340955839  1.0000
  H   H32       1.0  0.9720372588866177  0.5039181918918143  0.6578275652644241  1.0000
  H   H33       1.0  0.11477053812778698  0.3235522728501783  0.5424326408167813  1.0000
  H   H34       1.0  0.8852294616767515  0.676447727612616  0.4575673594766452  1.0000
  H   H35       1.0  0.29266037305355563  0.022525692631059073  0.7600117581337218  1.0000
  H   H36       1.0  0.7073396267509827  0.9774743078317353  0.23998824215970482  1.0000
  H   H37       1.0  0.3898304734834516  0.8704849187879179  0.6876318774741994  1.0000
  H   H38       1.0  0.6101695263210869  0.12951508167487613  0.3123681228192272  1.0000
  H   H39       1.0  0.20261926970514904  0.9406535008227525  0.7110704647634406  1.0000
  H   H40       1.0  0.7973807300993896  0.059346499640041656  0.288929535529986  1.0000
  H   H41       1.0  0.2834640942652461  0.031118008996561468  0.6038625014930991  1.0000
  H   H42       1.0  0.7165359055392924  0.9688819914662329  0.3961374988003275  1.0000
  C   C1        1.0  0.8084764195783783  0.3082318456200336  0.4329645810717615  1.0000
  C   C2        1.0  0.19152358074347967  0.6917681537808982  0.567035419220699  1.0000
  C   C3        1.0  0.8645121245320464  0.20394506982473223  0.5369417379781146  1.0000
  C   C4        1.0  0.13548787534474044  0.7960549308020708  0.4630582613818936  1.0000
  C   C5        1.0  0.8239398847442191  0.24487737238536766  0.6549096574334018  1.0000
  C   C6        1.0  0.17606011557763881  0.7551226270155641  0.34509034285905854  1.0000
  C   C7        1.0  0.7257596812710486  0.38725886863017933  0.6663011990598536  1.0000
  C   C8        1.0  0.27424031905080953  0.6127411307707524  0.3336988012326067  1.0000
  C   C9        1.0  0.6745059479160486  0.4839661607980166  0.5569173432727367  1.0000
  C   C10       1.0  0.32549405188848995  0.5160338396647778  0.4430826570206898  1.0000
  C   C11       1.0  0.8546474787579472  0.26584306183396106  0.30501647365180923  1.0000
  C   C12       1.0  0.14535252104659116  0.7341569386288331  0.6949835266416173  1.0000
  C   C13       1.0  0.8572625099353078  0.3497652656894326  0.08077465455304332  1.0000
  C   C14       1.0  0.1427374898692308  0.6502347347733616  0.9192253457403832  1.0000
  C   C15       1.0  0.7696978853380613  0.2825909318585681  0.04060825151344519  1.0000
  C   C16       1.0  0.23030211354301378  0.7174090687615742  0.9593917478530394  1.0000
  C   C17       1.0  0.8443801559092018  0.1616492372064622  0.9801407593181178  1.0000
  C   C18       1.0  0.15561984441265625  0.8383507621944695  0.019859240974342558  1.0000
  C   C19       1.0  0.7653468071648688  0.09472638752432556  0.9482126194265514  1.0000
  C   C20       1.0  0.23465319271191787  0.9052736131024777  0.051787379933456806  1.0000
  C   C21       1.0  0.6096205534410077  0.1512919133316447  0.9731324914210269  1.0000
  C   C22       1.0  0.3903794464357792  0.8487080872951583  0.026867507938981204  1.0000
  C   C23       1.0  0.53409804228117  0.27369232975384494  0.031162240939380522  1.0000
  C   C24       1.0  0.465901958040688  0.7263076696470869  0.9688377593530799  1.0000
  C   C25       1.0  0.6138218916329112  0.33794707300286075  0.06603507504093228  1.0000
  C   C26       1.0  0.3861781081716272  0.6620529274599335  0.9339649252524942  1.0000
  C   C27       1.0  0.5694965970254824  0.6376773474574102  0.5654663642178042  1.0000
  C   C28       1.0  0.4305034028513045  0.3623226531693928  0.434533635142204  1.0000
  C   C29       1.0  0.40179948764940787  0.9449776379213687  0.3462777395319611  1.0000
  C   C30       1.0  0.5982005121551308  0.0550223625414254  0.6537222607614654  1.0000
  C   C31       1.0  0.29909497817614045  0.09715045960721504  0.34371942356448365  1.0000
  C   C32       1.0  0.7009050217006464  0.9028495410195881  0.6562805757955245  1.0000
  C   C33       1.0  0.25763581096312027  0.18585794599939892  0.22879131390343113  1.0000
  C   C34       1.0  0.7423641878457062  0.8141420544567347  0.7712086863964719  1.0000
  C   C35       1.0  0.15962369531793133  0.3306344841534173  0.22790748072201236  1.0000
  C   C36       1.0  0.8403763044866072  0.669365516309377  0.7720925195714141  1.0000
  C   C37       1.0  0.10655440478098614  0.38344298212189376  0.34092672118243655  1.0000
  C   C38       1.0  0.8934455955408718  0.616557017279038  0.6590732791100239  1.0000
  C   C39       1.0  0.1532563547567833  0.2876339951276918  0.45123458661371446  1.0000
  C   C40       1.0  0.8467436450477551  0.7123660053351025  0.5487654136797121  1.0000
  N   N1        1.0  0.7156582072472509  0.4461925505307142  0.44238633332510585  1.0000
  N   N2        1.0  0.2843417930746071  0.5538074488702175  0.5576136669673545  1.0000
  N   N3        1.0  0.8185909908511575  0.37419066657191996  0.2098080380681786  1.0000
  N   N4        1.0  0.18140900947070066  0.6258093328290117  0.7901919622242817  1.0000
  N   N5        1.0  0.5320580443490696  0.7238112378490853  0.45259868654763796  1.0000
  N   N6        1.0  0.46794195545546896  0.27618876261370895  0.5474013137457886  1.0000
  N   N7        1.0  0.43733839643698125  0.863751983694612  0.4526121541739031  1.0000
  N   N8        1.0  0.5626616039571252  0.13624801587032861  0.5473878451851387  1.0000
  N   N9        1.0  0.24633126134701436  0.14812494560837317  0.45377680928009173  1.0000
  N   N10       1.0  0.7536687389748434  0.8518750537925587  0.5462231910123686  1.0000
  N   N11       1.0  0.29303348718997196  0.966666899458562  0.6927310913505271  1.0000
  N   N12       1.0  0.7069665132041346  0.03333310010637861  0.30726890800851486  1.0000
  O   O1        1.0  0.9235663067974419  0.13578585935249618  0.2910240610896097  1.0000
  O   O2        1.0  0.07643369300709653  0.864214141110298  0.7089759392038169  1.0000
  O   O3        1.0  0.5206696017327169  0.6817492675746951  0.6672008587500127  1.0000
  O   O4        1.0  0.4793303980718216  0.3182507328880991  0.3327991415434139  1.0000
  I   I1        1.0  0.7811246855388034  0.7301876650065722  0.16260858975372242  1.0000
  I   I2        1.0  0.21887531478305447  0.26981233439435953  0.8373914105387381  1.0000
