data_image0
_chemical_formula_structural       H28C24N4O6
_chemical_formula_sum              "H28 C24 N4 O6"
_cell_length_a       3.9841985389307757
_cell_length_b       7.3401935184912315
_cell_length_c       19.67029623184153
_cell_angle_alpha    96.87828908906175
_cell_angle_beta     91.6620754005203
_cell_angle_gamma    90.89729811732558

_space_group_name_H-M_alt    "P 1"
_space_group_IT_number       1

loop_
  _space_group_symop_operation_xyz
  'x, y, z'

loop_
  _atom_site_type_symbol
  _atom_site_label
  _atom_site_symmetry_multiplicity
  _atom_site_fract_x
  _atom_site_fract_y
  _atom_site_fract_z
  _atom_site_occupancy
  H   H1        1.0  0.8002078711345594  0.9154514719884699  0.8031445467252477  1.0000
  H   H2        1.0  0.19979212890172712  0.08454852794671823  0.19685545340930521  1.0000
  H   H3        1.0  0.1759692649298439  0.9003982256280164  0.9438714527283992  1.0000
  H   H4        1.0  0.8240307351064425  0.09960177430717179  0.05612854740615376  1.0000
  H   H5        1.0  0.010187181930367897  0.21080351694044258  0.8567467838071842  1.0000
  H   H6        1.0  0.9898128181059186  0.7891964829947455  0.14325321632736882  1.0000
  H   H7        1.0  0.9215715179656362  0.5988565750224312  0.889770598699915  1.0000
  H   H8        1.0  0.07842848207065028  0.401143424912757  0.11022940143463782  1.0000
  H   H9        1.0  0.5058021071288196  0.34532146452686624  0.9330429598687668  1.0000
  H   H10       1.0  0.4941978929163027  0.6546785354088284  0.06695703975748296  1.0000
  H   H11       1.0  0.39483679802126753  0.20001182670149908  0.9963527156588012  1.0000
  H   H12       1.0  0.6051632020150189  0.7999881732336892  0.0036472844757515894  1.0000
  H   H13       1.0  0.1301303102899012  0.38156727360739073  0.9770774078116172  1.0000
  H   H14       1.0  0.869869689755221  0.6184327263283038  0.02292259181463274  1.0000
  H   H15       1.0  0.4306352243368778  0.30804423914796275  0.7651754536816777  1.0000
  H   H16       1.0  0.5693647756994087  0.6919557607872253  0.23482454645287512  1.0000
  H   H17       1.0  0.08029844244294813  0.44276476601121023  0.6825508470039165  1.0000
  H   H18       1.0  0.9197015575933384  0.5572352339239779  0.3174491531306364  1.0000
  H   H19       1.0  0.7628827501124744  0.9616808188864217  0.5460212365523147  1.0000
  H   H20       1.0  0.23711724992381203  0.03831918104876643  0.4539787635822382  1.0000
  H   H21       1.0  0.35935582351233036  0.9321397229242876  0.7310489082016228  1.0000
  H   H22       1.0  0.6406441765239561  0.06786027701090055  0.26895109193293015  1.0000
  H   H23       1.0  0.06441549246585247  0.7737338384663942  0.6259258337473036  1.0000
  H   H24       1.0  0.9355845075792698  0.22626616146930034  0.3740741658789463  1.0000
  H   H25       1.0  0.5113805748177903  0.5874601787066653  0.556804209079131  1.0000
  H   H26       1.0  0.4886194252184962  0.41253982122852284  0.4431957910554219  1.0000
  H   H27       1.0  0.6232028534974823  0.5373367195023603  0.6409434883166069  1.0000
  H   H28       1.0  0.37679714654763996  0.4626632804333343  0.35905651130964295  1.0000
  C   C1        1.0  0.8952520830216486  0.8508362776860643  0.8469528783630274  1.0000
  C   C2        1.0  0.10474791701463786  0.14916372224912386  0.1530471217715256  1.0000
  C   C3        1.0  0.07360842842434272  0.9659141464107158  0.9008119293106975  1.0000
  C   C4        1.0  0.9263915716119439  0.03408585352447238  0.09918807082385538  1.0000
  C   C5        1.0  0.6456038786829671  0.5585877158851175  0.7910421770749732  1.0000
  C   C6        1.0  0.35439612136215515  0.4414122840505771  0.2089578225512766  1.0000
  C   C7        1.0  0.11712502308260953  0.14851063946303536  0.900169865473083  1.0000
  C   C8        1.0  0.882874976953677  0.8514893604721528  0.09983013466146973  1.0000
  C   C9        1.0  0.8348195720500323  0.6690991082860753  0.8469200556113271  1.0000
  C   C10       1.0  0.1651804279950899  0.3309008916496193  0.1530799440149227  1.0000
  C   C11       1.0  0.29745613607154  0.27344130950648066  0.9547789035367584  1.0000
  C   C12       1.0  0.7025438639647467  0.7265586904287076  0.04522109659779441  1.0000
  C   C13       1.0  0.059916078507092  0.29474015022051797  0.6684388196347891  1.0000
  C   C14       1.0  0.9400839215291945  0.7052598497146703  0.33156118049976385  1.0000
  C   C15       1.0  0.8870729547920082  0.21718773973173994  0.608981033984192  1.0000
  C   C16       1.0  0.11292704525311402  0.7828122602039546  0.3910189656420579  1.0000
  C   C17       1.0  0.7167196905750792  0.33447606218239  0.5618715276099883  1.0000
  C   C18       1.0  0.28328030947004307  0.6655239377533045  0.4381284720162617  1.0000
  C   C19       1.0  0.8908594221906413  0.026421209744262684  0.5926566009058979  1.0000
  C   C20       1.0  0.1091405778456451  0.9735787901909254  0.40734339922865515  1.0000
  C   C21       1.0  0.22180920739549495  0.010186057130532262  0.6957949070334678  1.0000
  C   C22       1.0  0.7781907926496272  0.9898139428051623  0.3042050925927821  1.0000
  C   C23       1.0  0.05767704033346823  0.9220718960966041  0.6372544929109303  1.0000
  C   C24       1.0  0.9423229597028182  0.07792810383858405  0.36274550722362275  1.0000
  N   N1        1.0  0.6238754814202905  0.5018230909280519  0.5889514381014993  1.0000
  N   N2        1.0  0.37612451861599594  0.49817690900713624  0.4110485620330536  1.0000
  N   N3        1.0  0.22475750628153984  0.1940505773108199  0.7105753623818147  1.0000
  N   N4        1.0  0.7752424937547466  0.8059494226243683  0.28942463775273813  1.0000
  O   O1        1.0  0.5599875164835081  0.6175510424486905  0.7362892918319951  1.0000
  O   O2        1.0  0.4400124835527785  0.3824489574864977  0.2637107083025578  1.0000
  O   O3        1.0  0.5762197691447811  0.38966806970988477  0.8051699162029882  1.0000
  O   O4        1.0  0.4237802308915054  0.6103319302253034  0.1948300839315647  1.0000
  O   O5        1.0  0.6728074830363207  0.2738864987035863  0.49980060561058576  1.0000
  O   O6        1.0  0.32719251700880164  0.7261135012321084  0.5001993940156642  1.0000
