data_image0
_chemical_formula_structural       H64C58N2O2F8I2
_chemical_formula_sum              "H64 C58 N2 O2 F8 I2"
_cell_length_a       5.420325133531934
_cell_length_b       13.15980925708241
_cell_length_c       18.931907399140186
_cell_angle_alpha    107.46050642069953
_cell_angle_beta     94.43183141801956
_cell_angle_gamma    93.54709274282187

_space_group_name_H-M_alt    "P 1"
_space_group_IT_number       1

loop_
  _space_group_symop_operation_xyz
  'x, y, z'

loop_
  _atom_site_type_symbol
  _atom_site_label
  _atom_site_symmetry_multiplicity
  _atom_site_fract_x
  _atom_site_fract_y
  _atom_site_fract_z
  _atom_site_occupancy
  H   H1        1.0  0.7369404225610467  0.4606244925697139  0.5073577405151198  1.0000
  H   H2        1.0  0.2630595764289144  0.5393755070214258  0.49264225912231185  1.0000
  H   H3        1.0  0.09111275697490584  0.4455246064870173  0.02720584753176532  1.0000
  H   H4        1.0  0.9088872420150554  0.5544753931041223  0.9727941521056664  1.0000
  H   H5        1.0  0.3655350463355056  0.3843142296179695  0.11223106665265843  1.0000
  H   H6        1.0  0.6344649547880639  0.615685770982905  0.8877689335437995  1.0000
  H   H7        1.0  0.7829095764224786  0.2453791057317456  0.9258283283481478  1.0000
  H   H8        1.0  0.21709042275335516  0.7546208941012964  0.07417167184582821  1.0000
  H   H9        1.0  0.49013958176126093  0.3149262802699303  0.8485795135659077  1.0000
  H   H10       1.0  0.5098604172287002  0.6850737193212094  0.15142048607152417  1.0000
  H   H11       1.0  0.9155571698015046  0.21969545664176512  0.04152363011922318  1.0000
  H   H12       1.0  0.08444282929044383  0.7803045437116931  0.9584763695204715  1.0000
  H   H13       1.0  0.6451972492938974  0.3338028360871371  0.17639138469546078  1.0000
  H   H14       1.0  0.3548027498819364  0.6661971637459049  0.8236086154985153  1.0000
  H   H15       1.0  0.7726866893743187  0.31819387898946855  0.29164038109414725  1.0000
  H   H16       1.0  0.22731330990350238  0.6818061216058922  0.7083596191020918  1.0000
  H   H17       1.0  0.05738371083543353  0.26158175808618833  0.3770267593685323  1.0000
  H   H18       1.0  0.9426162882565149  0.7384182422672699  0.6229732402711625  1.0000
  H   H19       1.0  0.47987267766375374  0.11459037361959269  0.19554555326979958  1.0000
  H   H20       1.0  0.5201273215120801  0.8854096262134493  0.8044544469241763  1.0000
  H   H21       1.0  0.19516586982281944  0.1723367157877829  0.10944559655302104  1.0000
  H   H22       1.0  0.8048341311148773  0.8276632845711893  0.8905544030868928  1.0000
  H   H23       1.0  0.24592516885460286  0.1402890154233405  0.4199147535093747  1.0000
  H   H24       1.0  0.7540748319811066  0.8597109841733133  0.580085246128276  1.0000
  H   H25       1.0  0.43060776732373574  0.2636518202795786  0.4361780485579572  1.0000
  H   H26       1.0  0.5693922317682127  0.7363481800738796  0.5638219510817376  1.0000
  H   H27       1.0  0.8151302012178574  0.17346915613946468  0.44385388204627213  1.0000
  H   H28       1.0  0.18486979795797637  0.8265308436935773  0.5561461181477038  1.0000
  H   H29       1.0  0.641075956908309  0.048145578798336364  0.42124261144475483  1.0000
  H   H30       1.0  0.3589240440293878  0.9518544215606358  0.578757388195159  1.0000
  H   H31       1.0  0.42653462962834277  0.11131618741764049  0.537262921125048  1.0000
  H   H32       1.0  0.5734653714952266  0.8886838131832342  0.46273707907141  1.0000
  H   H33       1.0  0.5901024553004726  0.23814023787427918  0.5599873311006206  1.0000
  H   H34       1.0  0.4098975458230968  0.7618597627265954  0.44001266909583736  1.0000
  H   H35       1.0  0.8311101148840998  0.028544332094081568  0.5441279561019813  1.0000
  H   H36       1.0  0.1688898843937212  0.9714556685012792  0.4558720440942578  1.0000
  H   H37       1.0  0.9932620596635301  0.1561294171648682  0.5688724188933606  1.0000
  H   H38       1.0  0.006737939512303656  0.8438705826681738  0.4311275813006153  1.0000
  H   H39       1.0  0.6005378071305284  0.0870094375978291  0.6579832361243284  1.0000
  H   H40       1.0  0.39946219399304084  0.9129905630030456  0.3420167640721296  1.0000
  H   H41       1.0  0.7625396797142815  0.21457928167522508  0.6828844661983157  1.0000
  H   H42       1.0  0.23746031946155235  0.7854207181578169  0.3171155339956603  1.0000
  H   H43       1.0  0.005748523718890201  0.005037293483876308  0.6664567736511566  1.0000
  H   H44       1.0  0.9942514752710709  0.9949627061072633  0.33354322598627517  1.0000
  H   H45       1.0  0.16567059386901292  0.1336466326650537  0.6930452723459013  1.0000
  H   H46       1.0  0.8343294071525692  0.8663533671735023  0.3069547278482936  1.0000
  H   H47       1.0  0.7622587906389658  0.06359731000025833  0.7782953528033396  1.0000
  H   H48       1.0  0.23774121038261625  0.9364026898382977  0.22170464739085527  1.0000
  H   H49       1.0  0.936421771674582  0.1894560412191126  0.8053961739755442  1.0000
  H   H50       1.0  0.06357822926311463  0.8105439591398595  0.1946038256643696  1.0000
  H   H51       1.0  0.14479777237274713  0.9732655967998013  0.7902868104041915  1.0000
  H   H52       1.0  0.8552022268030867  0.026734403033240883  0.20971318978978448  1.0000
  H   H53       1.0  0.32960949240995824  0.0958914171384318  0.8128084275055427  1.0000
  H   H54       1.0  0.6703905068678627  0.9041085834569289  0.1871915726906962  1.0000
  H   H55       1.0  0.12079752344754455  0.16792060943742768  0.92720515826611  1.0000
  H   H56       1.0  0.8792024773881648  0.8320793901592262  0.07279484137154073  1.0000
  H   H57       1.0  0.9182431144176385  0.049903717924045646  0.9044445360403607  1.0000
  H   H58       1.0  0.08175688467430979  0.9500962824294127  0.09555546359933413  1.0000
  H   H59       1.0  0.2663471504160571  0.04809594360743773  0.9996809382140753  1.0000
  H   H60       1.0  0.7336528504196523  0.951904055989216  0.0003190614235754377  1.0000
  H   H61       1.0  0.48652368434522014  0.0640620705180211  0.9387273316981267  1.0000
  H   H62       1.0  0.5134763149326009  0.9359379300773396  0.061272668498112325  1.0000
  H   H63       1.0  0.2858185329525706  0.9444190211964909  0.9160269806759571  1.0000
  H   H64       1.0  0.7141814660373905  0.05558097839464866  0.08397301896147463  1.0000
  C   C1        1.0  0.9289231902551969  0.437789218869822  0.7058260307980033  1.0000
  C   C2        1.0  0.07107680892063704  0.56221078096322  0.2941739693959726  1.0000
  C   C3        1.0  0.058768058969797976  0.3905493163376625  0.6452944793846179  1.0000
  C   C4        1.0  0.9412319402060358  0.6094506834953796  0.354705520809358  1.0000
  C   C5        1.0  0.989683439312108  0.3989903410684209  0.5750619651325164  1.0000
  C   C6        1.0  0.010316559965713006  0.6010096595269396  0.42493803506372263  1.0000
  C   C7        1.0  0.7902037163168244  0.4546309020915094  0.5624096919375814  1.0000
  C   C8        1.0  0.20979628296099662  0.5453690985038512  0.4375903082586576  1.0000
  C   C9        1.0  0.661601538489004  0.5019361474384365  0.6225974278911295  1.0000
  C   C10       1.0  0.3383984625325779  0.4980638524001195  0.37740257230306534  1.0000
  C   C11       1.0  0.7284452889331955  0.4935652788097125  0.6930370891002188  1.0000
  C   C12       1.0  0.2715547100567656  0.506434720781427  0.3069629105372129  1.0000
  C   C13       1.0  0.24721193093447344  0.4010833959642903  0.006302649233855949  1.0000
  C   C14       1.0  0.7527880700871086  0.5989166038742657  0.9936973509603391  1.0000
  C   C15       1.0  0.40272316323530205  0.3659955224763431  0.05422553668785395  1.0000
  C   C16       1.0  0.5972768359405318  0.6340044773566991  0.945774463506122  1.0000
  C   C17       1.0  0.6034613840608506  0.3075001119010273  0.027136466274692385  1.0000
  C   C18       1.0  0.39653861706271876  0.6924998886998472  0.9728635339217657  1.0000
  C   C19       1.0  0.6321130781987873  0.28945851105256165  0.9510312867325962  1.0000
  C   C20       1.0  0.36788692097704656  0.7105414887804804  0.048968713461379695  1.0000
  C   C21       1.0  0.46819707590392273  0.32800895969250077  0.9074085781518764  1.0000
  C   C22       1.0  0.5318029231880256  0.6719910406609574  0.09259142148781846  1.0000
  C   C23       1.0  0.7775391765944395  0.2670078158014811  0.07206420152356932  1.0000
  C   C24       1.0  0.2224608225813943  0.732992184031561  0.9279357986704065  1.0000
  C   C25       1.0  0.7843897717044463  0.28611305807905335  0.14669596068269208  1.0000
  C   C26       1.0  0.215610229419123  0.7138869425218212  0.8533040395137659  1.0000
  C   C27       1.0  0.9594410806723043  0.2499697994601663  0.19385293316004876  1.0000
  C   C28       1.0  0.040558918503529544  0.7500302003728758  0.8061470670339272  1.0000
  C   C29       1.0  0.9278821636247041  0.27369899045435625  0.2700213223737218  1.0000
  C   C30       1.0  0.07211783721100529  0.7263010091422974  0.729978677263929  1.0000
  C   C31       1.0  0.08819838690578574  0.24149661484445129  0.3185861113479271  1.0000
  C   C32       1.0  0.9118016120841755  0.7585033847466884  0.6814138882895048  1.0000
  C   C33       1.0  0.28791242285552654  0.18391541116994461  0.291432555618914  1.0000
  C   C34       1.0  0.7120875781660556  0.8160845886686113  0.7085674445752809  1.0000
  C   C35       1.0  0.32328338788212124  0.1590353833489249  0.21545491384952517  1.0000
  C   C36       1.0  0.6767166113956998  0.8409646172464359  0.7845450863467139  1.0000
  C   C37       1.0  0.1623506678654194  0.19167936393080856  0.1679321042030098  1.0000
  C   C38       1.0  0.837649331226529  0.8083206364226497  0.832067895436685  1.0000
  C   C39       1.0  0.42763607744224086  0.17618088210550148  0.4123466263736712  1.0000
  C   C40       1.0  0.5723639234954557  0.8238191182534708  0.5876533732662425  1.0000
  C   C41       1.0  0.6364087913127412  0.13403699358543555  0.44990967412601784  1.0000
  C   C42       1.0  0.3635912097088409  0.8659630062531205  0.5500903260681771  1.0000
  C   C43       1.0  0.6044752447279287  0.15255313571913445  0.5320951529219624  1.0000
  C   C44       1.0  0.39552475620976807  0.8474468646398379  0.4679048467179515  1.0000
  C   C45       1.0  0.8149380821519151  0.1139129519918076  0.5727615917087345  1.0000
  C   C46       1.0  0.1850619189716541  0.8860870486090672  0.4272384084877234  1.0000
  C   C47       1.0  0.778966445265014  0.1292573130446663  0.6542750984755267  1.0000
  C   C48       1.0  0.22103355585855544  0.8707426875562083  0.34572490172093134  1.0000
  C   C49       1.0  0.9873764113186173  0.09010528195508063  0.6954302136556109  1.0000
  C   C50       1.0  0.012623587857216479  0.9098947178779614  0.30456978653836503  1.0000
  C   C51       1.0  0.9454705978141839  0.1036745188782567  0.7763459101331057  1.0000
  C   C52       1.0  0.054529403123512885  0.8963254814807156  0.223654089506808  1.0000
  C   C53       1.0  0.14468931117872919  0.05997297877734522  0.8176896607409404  1.0000
  C   C54       1.0  0.8553106899448402  0.9400270218235294  0.1823103394555175  1.0000
  C   C55       1.0  0.10814765124118433  0.08086678887886165  0.8998283505347593  1.0000
  C   C56       1.0  0.8918523479346494  0.9191332109541804  0.10017164965921664  1.0000
  C   C57       1.0  0.2962413499785775  0.03171237729451315  0.9407075859472198  1.0000
  C   C58       1.0  0.7037586491972564  0.9682876225385291  0.0592924142467562  1.0000
  N   N1        1.0  0.2761868654886584  0.3828470036857357  0.9336549242962635  1.0000
  N   N2        1.0  0.7238131337891627  0.6171529969096248  0.06634507589997546  1.0000
  O   O1        1.0  0.45632789328719336  0.1493665024618226  0.3341182165221828  1.0000
  O   O2        1.0  0.5436721057027678  0.8506334971293171  0.6658817831152489  1.0000
  F   F1        1.0  0.2561333579175057  0.33525601095661467  0.6539027555916762  1.0000
  F   F2        1.0  0.7438666412583282  0.6647439888764274  0.34609724460229974  1.0000
  F   F3        1.0  0.12226859724827581  0.35177045425992026  0.5175928192448465  1.0000
  F   F4        1.0  0.8777314038752935  0.6482295463409544  0.48240718095161156  1.0000
  F   F5        1.0  0.46502843545124395  0.5578854928246008  0.6126914524145255  1.0000
  F   F6        1.0  0.5349715636407044  0.4421145075288575  0.3873085472251693  1.0000
  F   F7        1.0  0.5936732887765207  0.5407333802764416  0.749308918970233  1.0000
  F   F8        1.0  0.4063267102134406  0.459266619314698  0.2506910806671987  1.0000
  I   I1        1.0  0.04408498672423708  0.4235674187255217  0.8119163897302554  1.0000
  I   I2        1.0  0.9559150141114722  0.5764325808711319  0.1880836099073954  1.0000
