data_image0
_chemical_formula_structural       H52C80N16O4F20
_chemical_formula_sum              "H52 C80 N16 O4 F20"
_cell_length_a       6.881025980251059
_cell_length_b       7.477727918975087
_cell_length_c       34.7158994323595
_cell_angle_alpha    90.0
_cell_angle_beta     90.0
_cell_angle_gamma    90.0

_space_group_name_H-M_alt    "P 1"
_space_group_IT_number       1

loop_
  _space_group_symop_operation_xyz
  'x, y, z'

loop_
  _atom_site_type_symbol
  _atom_site_label
  _atom_site_symmetry_multiplicity
  _atom_site_fract_x
  _atom_site_fract_y
  _atom_site_fract_z
  _atom_site_occupancy
  H   H1        1.0  0.8971961212933469  0.9947213592948569  0.16849855154688778  1.0000
  H   H2        1.0  0.6028038786519246  0.005278640842205202  0.6684985516569311  1.0000
  H   H3        1.0  0.10280387867016748  0.4947213592263259  0.33150144856315544  1.0000
  H   H4        1.0  0.3971961213115897  0.5052786395734317  0.8315014483851462  1.0000
  H   H5        1.0  0.8657288632679528  0.9431947412933811  0.11905821216163957  1.0000
  H   H6        1.0  0.6342711366773187  0.05680525884368102  0.6190582122716828  1.0000
  H   H7        1.0  0.1342711366955615  0.44319474122485003  0.38094178794840367  1.0000
  H   H8        1.0  0.3657288632861957  0.5568052575749075  0.8809417877703944  1.0000
  H   H9        1.0  0.7813287415903406  0.15224858838619548  0.1368179297573561  1.0000
  H   H10       1.0  0.7186712583549308  0.8477514117508667  0.6368179298673994  1.0000
  H   H11       1.0  0.21867125837317367  0.6522485884547264  0.3631820703526871  1.0000
  H   H12       1.0  0.2813287416085835  0.3477514116823356  0.863182070174678  1.0000
  H   H13       1.0  0.6221967991819429  0.2689993112608062  0.06805033971834602  1.0000
  H   H14       1.0  0.8778032007633286  0.7310006888762559  0.5680503398283893  1.0000
  H   H15       1.0  0.37780320078157137  0.7689993113293372  0.4319496601036448  1.0000
  H   H16       1.0  0.12219679920018575  0.23100068880772487  0.931949660213688  1.0000
  H   H17       1.0  0.500475144242131  0.15254949395863418  0.004867060129875373  1.0000
  H   H18       1.0  0.9995248557031404  0.847450506178428  0.5048670602399186  1.0000
  H   H19       1.0  0.4995248557213833  0.6525494940271652  0.49513293969211536  1.0000
  H   H20       1.0  0.000475144260373903  0.3474505061098969  0.9951329398021587  1.0000
  H   H21       1.0  0.1729697872695104  0.021205359665149956  0.9988771196196298  1.0000
  H   H22       1.0  0.32703021271224675  0.9787946404719122  0.498877119797639  1.0000
  H   H23       1.0  0.827030212694004  0.5212053597336811  0.5011228804224473  1.0000
  H   H24       1.0  0.6729697872512677  0.4787946404033811  0.0011228803124041819  1.0000
  H   H25       1.0  0.949257922982247  0.003061347009151092  0.05504143177171687  1.0000
  H   H26       1.0  0.5507420769630246  0.9969386531279111  0.5550414318817601  1.0000
  H   H27       1.0  0.05074207698126737  0.5030613470776821  0.4449585680502739  1.0000
  H   H28       1.0  0.44925792300048983  0.49693865305938  0.9449585681603171  1.0000
  H   H29       1.0  0.4481118293768595  0.22249356997573627  0.2796028343990475  1.0000
  H   H30       1.0  0.05188817060489764  0.7775064301613259  0.7796028345090907  1.0000
  H   H31       1.0  0.5518881705866548  0.7224935700442673  0.2203971654229433  1.0000
  H   H32       1.0  0.9481118293586167  0.27750643009279485  0.7203971655329865  1.0000
  H   H33       1.0  0.49338717943281635  0.1626770060613184  0.20931181616532665  1.0000
  H   H34       1.0  0.006612820548940842  0.8373229940757438  0.7093118162753699  1.0000
  H   H35       1.0  0.506612820530698  0.6626770061298495  0.29068818365666416  1.0000
  H   H36       1.0  0.9933871794145736  0.3373229940072127  0.7906881837667074  1.0000
  H   H37       1.0  0.8888863241549391  0.3101160947719855  0.19369097214667746  1.0000
  H   H38       1.0  0.6111136757903324  0.6898839053650766  0.6936909722567206  1.0000
  H   H39       1.0  0.11111367580857527  0.8101160948405165  0.30630902796336573  1.0000
  H   H40       1.0  0.3888863241731819  0.18988390529654556  0.8063090277853565  1.0000
  H   H41       1.0  0.873602349017824  0.36757679468722027  0.26343889138805515  1.0000
  H   H42       1.0  0.6263976509274475  0.632423205449842  0.7634388914980984  1.0000
  H   H43       1.0  0.12639765094569033  0.8675767934184467  0.2365611084339356  1.0000
  H   H44       1.0  0.3736023490360668  0.13242320538131083  0.7365611085439788  1.0000
  H   H45       1.0  0.9155331861964787  0.6484014171867001  0.1694181218452809  1.0000
  H   H46       1.0  0.5844668137487927  0.35159858295036206  0.6694181219553241  1.0000
  H   H47       1.0  0.08446681376703565  0.14840141711816907  0.33058187797670985  1.0000
  H   H48       1.0  0.4155331862147215  0.8515985830188931  0.8305818780867531  1.0000
  H   H49       1.0  0.5419372707940192  0.37431917961300265  0.1503918468300837  1.0000
  H   H50       1.0  0.9580627291512522  0.6256808205240595  0.6503918466520745  1.0000
  H   H51       1.0  0.4580627291694951  0.8743191796815337  0.3496081532799595  1.0000
  H   H52       1.0  0.04193727081226211  0.12568082045552842  0.8496081531019503  1.0000
  C   C1        1.0  0.8958377555457351  0.05124437986405382  0.13937171696868095  1.0000
  C   C2        1.0  0.6041622458528081  0.9487556202730083  0.6393717170787242  1.0000
  C   C3        1.0  0.10416224587105093  0.5512443799325849  0.36062828285330983  1.0000
  C   C4        1.0  0.3958377555639779  0.44875562020447723  0.860628282963353  1.0000
  C   C5        1.0  0.22042293610765598  0.19966992329464756  0.1540253736020394  1.0000
  C   C6        1.0  0.2795770638741012  0.8003300768424146  0.6540253734240302  1.0000
  C   C7        1.0  0.7795770638558583  0.6996699233631786  0.3459746265080038  1.0000
  C   C8        1.0  0.7204229360894132  0.30033007677388357  0.845974626618047  1.0000
  C   C9        1.0  0.3545197674011681  0.19560351297195588  0.09718503668826568  1.0000
  C   C10       1.0  0.14548023258058906  0.8043964871651063  0.5971850365102565  1.0000
  C   C11       1.0  0.6454802325623463  0.695603513040487  0.4028149634217776  1.0000
  C   C12       1.0  0.8545197673829252  0.3043964870965752  0.9028149635318208  1.0000
  C   C13       1.0  0.4781010955985329  0.20961863910860787  0.06523520165198489  1.0000
  C   C14       1.0  0.021898904383224272  0.7903813596911498  0.5652352017620281  1.0000
  C   C15       1.0  0.5218989043649814  0.709618639177139  0.43476479817000585  1.0000
  C   C16       1.0  0.9781010955802901  0.29038135962261863  0.934764798280049  1.0000
  C   C17       1.0  0.4083270326349626  0.14544537214842512  0.03026619754004129  1.0000
  C   C18       1.0  0.09167296734679452  0.854554627988637  0.5302661976500845  1.0000
  C   C19       1.0  0.5916729673285517  0.6454453722169562  0.46973380228194944  1.0000
  C   C20       1.0  0.9083270326167198  0.35455462792010595  0.9697338023919928  1.0000
  C   C21       1.0  0.2205809968391692  0.07096201088749027  0.026788768985000825  1.0000
  C   C22       1.0  0.27941900314258794  0.9290379879122672  0.5267887688069915  1.0000
  C   C23       1.0  0.7794190031243452  0.5709620109560213  0.4732112311250424  1.0000
  C   C24       1.0  0.7205809968209265  0.4290379891810408  0.9732112312350857  1.0000
  C   C25       1.0  0.09464381937651671  0.058981133678430296  0.058101173611531866  1.0000
  C   C26       1.0  0.4053561806052405  0.9410188664586319  0.5581011734335227  1.0000
  C   C27       1.0  0.9053561805869976  0.5589811337469613  0.44189882649851137  1.0000
  C   C28       1.0  0.5946438193582738  0.4410188663901008  0.9418988263205021  1.0000
  C   C29       1.0  0.1652776029714257  0.12232890791316416  0.09325168274287667  1.0000
  C   C30       1.0  0.33472239701033146  0.877671092223898  0.5932516828529198  1.0000
  C   C31       1.0  0.8347223969920886  0.6223289079816953  0.40674831707911413  1.0000
  C   C32       1.0  0.665277602953183  0.37767109215536687  0.9067483171891574  1.0000
  C   C33       1.0  0.3286263511415336  0.24325165607915192  0.2593653100517703  1.0000
  C   C34       1.0  0.17137364884022355  0.7567483440579102  0.7593653101618135  1.0000
  C   C35       1.0  0.6713736488219808  0.743251656147683  0.24063468977022046  1.0000
  C   C36       1.0  0.8286263511232909  0.2567483439893792  0.7406346898802637  1.0000
  C   C37       1.0  0.35359556365331823  0.20848954079271764  0.22026935280473228  1.0000
  C   C38       1.0  0.14640443632843889  0.7915104593443445  0.720269352626723  1.0000
  C   C39       1.0  0.6464044363101961  0.7084895408612487  0.27973064730531094  1.0000
  C   C40       1.0  0.8535955636350755  0.2915104592758134  0.7797306474153542  1.0000
  C   C41       1.0  0.19456091051572427  0.23015797694814924  0.19526136787000364  1.0000
  C   C42       1.0  0.3054390894660329  0.7698420231889129  0.6952613679800469  1.0000
  C   C43       1.0  0.8054390894477901  0.7301579770166803  0.30473863195198714  1.0000
  C   C44       1.0  0.6945609104974815  0.26984202312038186  0.8047386320620303  1.0000
  C   C45       1.0  0.017530929304178954  0.28654191396330997  0.21119374464963092  1.0000
  C   C46       1.0  0.4824690706775782  0.7134580861737522  0.7111937447596742  1.0000
  C   C47       1.0  0.9824690706593353  0.786541914031841  0.2888062554604123  1.0000
  C   C48       1.0  0.5175309292859361  0.21345808610522113  0.788806255282403  1.0000
  C   C49       1.0  0.009123873413672153  0.3204325653411064  0.25060250093623176  1.0000
  C   C50       1.0  0.49087612656808505  0.6795674347959558  0.7506025007582225  1.0000
  C   C51       1.0  0.9908761265498423  0.8204325654096375  0.24939749917381143  1.0000
  C   C52       1.0  0.5091238733954293  0.17956743472742467  0.7493974992838547  1.0000
  C   C53       1.0  0.08468953346092989  0.6192107669831663  0.11650963351477528  1.0000
  C   C54       1.0  0.41531046652082726  0.3807892331538958  0.6165096336248185  1.0000
  C   C55       1.0  0.9153104665025844  0.11921076691463531  0.3834903663072155  1.0000
  C   C56       1.0  0.584689533442687  0.8807892332224269  0.8834903664172588  1.0000
  C   C57       1.0  0.9186157686574196  0.5830333407741264  0.1411313663224021  1.0000
  C   C58       1.0  0.581384231287852  0.41696665936293587  0.6411313664324454  1.0000
  C   C59       1.0  0.08138423130609482  0.08303334070559523  0.35886863349958864  1.0000
  C   C60       1.0  0.41861576867566236  0.9169666594314669  0.858868633609632  1.0000
  C   C61       1.0  0.10081938536361817  0.5772762016449052  0.07712399257339438  1.0000
  C   C62       1.0  0.399180614618139  0.42272379849215685  0.5771239926834376  1.0000
  C   C63       1.0  0.8991806145998962  0.07727620157637421  0.42287600753664883  1.0000
  C   C64       1.0  0.6008193853453753  0.9227237985606879  0.9228760073586397  1.0000
  C   C65       1.0  0.26645475620382764  0.6177746048071198  0.055799575458913606  1.0000
  C   C66       1.0  0.23354524377792954  0.38222539399263783  0.5557995752809044  1.0000
  C   C67       1.0  0.7335452437596867  0.11777460607589327  0.44420042465112963  1.0000
  C   C68       1.0  0.7664547561855848  0.8822253940611688  0.9442004244731204  1.0000
  C   C69       1.0  0.4238292775481708  0.702601016903555  0.07336745789814869  1.0000
  C   C70       1.0  0.07617072243358637  0.2973989832335071  0.5733674580081919  1.0000
  C   C71       1.0  0.5761707224153435  0.20260101683502393  0.4266325422118945  1.0000
  C   C72       1.0  0.9238292775299279  0.7973989833020382  0.9266325420338853  1.0000
  C   C73       1.0  0.41186868907833957  0.7484041864907877  0.11218515532308934  1.0000
  C   C74       1.0  0.08813131090341761  0.2515958136462745  0.6121851551450801  1.0000
  C   C75       1.0  0.5881313108851749  0.24840418642225656  0.3878148447869539  1.0000
  C   C76       1.0  0.9118686890600968  0.7515958137148057  0.887814844896997  1.0000
  C   C77       1.0  0.24597976738611946  0.7057082214250034  0.13290816644373496  1.0000
  C   C78       1.0  0.2540202325956377  0.2942917787120588  0.6329081665537782  1.0000
  C   C79       1.0  0.7540202325773949  0.2057082213564723  0.36709183337825585  1.0000
  C   C80       1.0  0.7459797673678765  0.7942917787805899  0.867091833488299  1.0000
  N   N1        1.0  0.08406800986658881  0.12681111164712858  0.1297596286905084  1.0000
  N   N2        1.0  0.41593199011516835  0.873188887152629  0.6297596285124992  1.0000
  N   N3        1.0  0.9159319900969255  0.6268111117156596  0.3702403714195348  1.0000
  N   N4        1.0  0.584068009848346  0.3731888884214025  0.870240371529578  1.0000
  N   N5        1.0  0.3837748393305223  0.24163526001192825  0.13526203257816183  1.0000
  N   N6        1.0  0.11622516065123484  0.7583647401251339  0.635262032688205  1.0000
  N   N7        1.0  0.616225160632992  0.7416352587431546  0.36473796724382895  1.0000
  N   N8        1.0  0.8837748393122795  0.25836474005660287  0.8647379673538722  1.0000
  N   N9        1.0  0.15987443488185493  0.2997538897225913  0.27470851212083447  1.0000
  N   N10       1.0  0.3401255650999022  0.7002461104144708  0.7747085122308777  1.0000
  N   N11       1.0  0.8401255650816594  0.7997538897911224  0.2252914877011563  1.0000
  N   N12       1.0  0.6598744348636121  0.2002461103459398  0.7252914878111996  1.0000
  N   N13       1.0  0.7778773173306209  0.4778392646425338  0.13122155768643964  1.0000
  N   N14       1.0  0.7221226826146505  0.5221607354945283  0.6312215577964828  1.0000
  N   N15       1.0  0.2221226826328934  0.9778392647110649  0.3687784421355511  1.0000
  N   N16       1.0  0.2778773173488638  0.022160735425997263  0.8687784422455943  1.0000
  O   O1        1.0  0.6442837234918051  0.46412946119543924  0.16086141771670776  1.0000
  O   O2        1.0  0.8557162764534664  0.5358705389416228  0.660861417826751  1.0000
  O   O3        1.0  0.3557162764717093  0.9641294599266658  0.33913858210528297  1.0000
  O   O4        1.0  0.14428372351004787  0.03587053887309184  0.8391385822153262  1.0000
  F   F1        1.0  0.952078665129669  0.49734128739331446  0.05851217866205059  1.0000
  F   F2        1.0  0.5479213348156026  0.5026587127437476  0.5585121787720939  1.0000
  F   F3        1.0  0.047921334833845364  0.9973412874618455  0.44148782144799265  1.0000
  F   F4        1.0  0.4520786651479118  0.002658712675216585  0.9414878212699834  1.0000
  F   F5        1.0  0.2757956059818218  0.5771614355007906  0.017987588690210648  1.0000
  F   F6        1.0  0.2242043939999354  0.4228385646362716  0.5179875885122014  1.0000
  F   F7        1.0  0.7242043939816926  0.07716143543225945  0.48201241141983264  1.0000
  F   F8        1.0  0.775795605963579  0.9228385647048027  0.9820124115298757  1.0000
  F   F9        1.0  0.5845715466770027  0.7407654036119597  0.05291736293853935  1.0000
  F   F10       1.0  0.9154284532682688  0.2592345965251024  0.55291736276053  1.0000
  F   F11       1.0  0.4154284532865117  0.2407654035434287  0.44708263717150387  1.0000
  F   F12       1.0  0.08457154669524553  0.7592345965936335  0.9470826369934946  1.0000
  F   F13       1.0  0.5592663915301176  0.8343403982603217  0.12964596031191178  1.0000
  F   F14       1.0  0.940733608415154  0.16565960187674048  0.6296459604219551  1.0000
  F   F15       1.0  0.44073360843339676  0.3343403981917906  0.370354039510079  1.0000
  F   F16       1.0  0.05926639154836045  0.6656596019452716  0.8703540396201223  1.0000
  F   F17       1.0  0.2436459003078536  0.7502309218505133  0.17084440348595895  1.0000
  F   F18       1.0  0.25635409967390355  0.2497690782865488  0.6708444035960022  1.0000
  F   F19       1.0  0.7563540996556607  0.25023092178198225  0.32915559633603186  1.0000
  F   F20       1.0  0.7436459002896108  0.7497690783550799  0.8291555964460751  1.0000
