data_image0
_chemical_formula_structural       H88C72N16O16
_chemical_formula_sum              "H88 C72 N16 O16"
_cell_length_a       13.429474208740517
_cell_length_b       7.596895819351716
_cell_length_c       17.905634921228337
_cell_angle_alpha    90.0
_cell_angle_beta     97.91893222812652
_cell_angle_gamma    90.0

_space_group_name_H-M_alt    "P 1"
_space_group_IT_number       1

loop_
  _space_group_symop_operation_xyz
  'x, y, z'

loop_
  _atom_site_type_symbol
  _atom_site_label
  _atom_site_symmetry_multiplicity
  _atom_site_fract_x
  _atom_site_fract_y
  _atom_site_fract_z
  _atom_site_occupancy
  H   H1        1.0  0.2886944161166549  0.4143892327680547  0.06409618286140384  1.0000
  H   H2        1.0  0.7113055834480393  0.9143892328107224  0.43590381724024424  1.0000
  H   H3        1.0  0.7113055835347637  0.5856107673172807  0.9359038170971533  1.0000
  H   H4        1.0  0.28869441620337916  0.08561076727461298  0.564096182718313  1.0000
  H   H5        1.0  0.45467320960019375  0.25624619006110316  0.24079478738819632  1.0000
  H   H6        1.0  0.5453267907162994  0.7562461901037708  0.2592052127901815  1.0000
  H   H7        1.0  0.5453267900512248  0.7437538100242321  0.759205212570361  1.0000
  H   H8        1.0  0.45467320968691805  0.24375380998156448  0.7407947872451054  1.0000
  H   H9        1.0  0.1655375803156197  0.13035474140337847  0.8559600879081192  1.0000
  H   H10       1.0  0.8344624194238077  0.6303547414460461  0.6440399124659627  1.0000
  H   H11       1.0  0.8344624193357988  0.8696452573656298  0.14403991205043812  1.0000
  H   H12       1.0  0.1655375802276109  0.36964525863928915  0.3559600874925946  1.0000
  H   H13       1.0  0.3786303361147795  0.08395963366711401  0.14189200005701613  1.0000
  H   H14       1.0  0.6213696642017137  0.5839596337097817  0.3581080001213617  1.0000
  H   H15       1.0  0.621369664288438  0.9160403664182213  0.8581079999782708  1.0000
  H   H16       1.0  0.3786303362015037  0.41604036637555364  0.6418919999139253  1.0000
  H   H17       1.0  0.0907698840304416  0.35766821141320726  0.23667685171416497  1.0000
  H   H18       1.0  0.9092301162860515  0.8576682101395479  0.26332314846421284  1.0000
  H   H19       1.0  0.9092301163727758  0.6423317886721281  0.763323148321122  1.0000
  H   H20       1.0  0.090769883365367  0.14233178862946044  0.7366768514943444  1.0000
  H   H21       1.0  0.6325400104808171  0.34578657552581366  0.27039551000895334  1.0000
  H   H22       1.0  0.36745998908259275  0.8457865755684812  0.2296044895340794  1.0000
  H   H23       1.0  0.36745998917060146  0.6542134245595217  0.7296044899496039  1.0000
  H   H24       1.0  0.6325400105688259  0.15421342451685405  0.7703955104244777  1.0000
  H   H25       1.0  0.435949409339297  0.9107347006623048  0.05084249381757916  1.0000
  H   H26       1.0  0.5640505909771962  0.4107347006196371  0.44915750636079865  1.0000
  H   H27       1.0  0.5640505910639204  0.08926529942303055  0.9491575062177078  1.0000
  H   H28       1.0  0.43594940942602123  0.5892652994656982  0.5508424936744883  1.0000
  H   H29       1.0  0.705986718423505  0.5631369537939869  0.18915081821996235  1.0000
  H   H30       1.0  0.29401328189298825  0.06313695375131927  0.3108491819584155  1.0000
  H   H31       1.0  0.29401328197971255  0.4368630462913484  0.8108491818153246  1.0000
  H   H32       1.0  0.7059867185102292  0.9368630463340161  0.6891508180768715  1.0000
  H   H33       1.0  0.17925520589236407  0.2436311203959543  0.9869870957599517  1.0000
  H   H34       1.0  0.8207447938470633  0.743631120438622  0.5130129046141302  1.0000
  H   H35       1.0  0.8207447937590545  0.756368879689381  0.013012904198605587  1.0000
  H   H36       1.0  0.17925520580435528  0.25636887964671334  0.48698709534442713  1.0000
  H   H37       1.0  0.20246049434987345  0.9780415338950966  0.15098629958388457  1.0000
  H   H38       1.0  0.7975395059666197  0.47804153385242903  0.3490137005944932  1.0000
  H   H39       1.0  0.797539506053344  0.02195846619023865  0.8490137004514023  1.0000
  H   H40       1.0  0.20246049368479885  0.5219584662329063  0.650986299364064  1.0000
  H   H41       1.0  0.22893139308730118  0.5102762775981841  0.18076990947665558  1.0000
  H   H42       1.0  0.7710686072279076  0.010276277555516345  0.3192300901431069  1.0000
  H   H43       1.0  0.7710686073159162  0.4897237224871513  0.8192300905586314  1.0000
  H   H44       1.0  0.22893139317530994  0.989723722529819  0.68076990989218  1.0000
  H   H45       1.0  0.4235971633862966  0.7982779524963277  0.9192948681020365  1.0000
  H   H46       1.0  0.5764028363518461  0.29827795245366007  0.58070513171343  1.0000
  H   H47       1.0  0.576402836265122  0.20172204758900764  0.08070513185652071  1.0000
  H   H48       1.0  0.42359716329957237  0.7017220476316753  0.41929486824512735  1.0000
  H   H49       1.0  0.423077047774972  0.5842830908241653  0.042726688500435386  1.0000
  H   H50       1.0  0.5769229525402367  0.08428309078149757  0.45727331111932706  1.0000
  H   H51       1.0  0.5769229526282454  0.4157169092611701  0.9572733115348515  1.0000
  H   H52       1.0  0.42307704711118194  0.9157169093038378  0.5427266888392303  1.0000
  H   H53       1.0  0.2878675601625799  0.9075044589183692  0.8215662568942969  1.0000
  H   H54       1.0  0.712132439575563  0.40750445887570147  0.6784337429211695  1.0000
  H   H55       1.0  0.7121324394888386  0.09249554116696619  0.1784337430642604  1.0000
  H   H56       1.0  0.2878675600758556  0.5924955398933067  0.32156625703738767  1.0000
  H   H57       1.0  0.6008148327611655  0.6841890047721556  0.07548401738326053  1.0000
  H   H58       1.0  0.39918516680224425  0.18418900472948788  0.42451598215977215  1.0000
  H   H59       1.0  0.399185166890253  0.31581099531317974  0.9245159825752968  1.0000
  H   H60       1.0  0.6008148328491744  0.8158109953558476  0.5754840177987851  1.0000
  H   H61       1.0  0.07139958953620514  0.13301918757735895  0.2167872695062612  1.0000
  H   H62       1.0  0.9286004107802881  0.6330191863036996  0.2832127306721166  1.0000
  H   H63       1.0  0.9286004101152135  0.8669808125079764  0.783212730452296  1.0000
  H   H64       1.0  0.07139958962292942  0.3669808124653087  0.7167872693631704  1.0000
  H   H65       1.0  0.9779099397400727  0.696755367701185  0.45059780782115166  1.0000
  H   H66       1.0  0.022090060575135934  0.1967553676585173  0.04940219179861075  1.0000
  H   H67       1.0  0.022090060663144725  0.3032446323841504  0.5494021922141352  1.0000
  H   H68       1.0  0.9779099398280815  0.803244632426818  0.9505978082366763  1.0000
  H   H69       1.0  0.02642437905124241  0.7007655740702649  0.5494426076953223  1.0000
  H   H70       1.0  0.9735756206869004  0.20076557402759712  0.950557392120144  1.0000
  H   H71       1.0  0.9735756206001761  0.29923442601507055  0.4505573922632349  1.0000
  H   H72       1.0  0.02642437896451814  0.7992344260577383  0.04944260783841312  1.0000
  H   H73       1.0  0.09571274606768271  0.6015890804186388  0.4818977718210691  1.0000
  H   H74       1.0  0.9042872542488104  0.10158908037597106  0.01810222835730875  1.0000
  H   H75       1.0  0.9042872543355347  0.3984109196666966  0.5181022282142179  1.0000
  H   H76       1.0  0.09571274615440699  0.8984109197093643  0.9818977716779783  1.0000
  H   H77       1.0  0.13350385417318292  0.8041159501541375  0.3711656856091961  1.0000
  H   H78       1.0  0.8664961461420257  0.30411595011146975  0.1288343140105664  1.0000
  H   H79       1.0  0.8664961462300345  0.19588404861487074  0.628834314426091  1.0000
  H   H80       1.0  0.1335038542611917  0.6958840486575385  0.8711656860247206  1.0000
  H   H81       1.0  0.17378508534937342  0.02243697084351297  0.4003217956028754  1.0000
  H   H82       1.0  0.8262149149671196  0.5224369708861806  0.0996782045755024  1.0000
  H   H83       1.0  0.826214915053844  0.9775630292418224  0.5996782044324115  1.0000
  H   H84       1.0  0.17378508468429885  0.4775630291991547  0.9003217953830548  1.0000
  H   H85       1.0  0.04437402068574265  0.9753413389091727  0.3702338861950303  1.0000
  H   H86       1.0  0.9556259796307505  0.4753413388665051  0.12976611398334748  1.0000
  H   H87       1.0  0.9556259797174749  0.024658661176162583  0.6297661138402566  1.0000
  H   H88       1.0  0.04437402077246692  0.5246586612188302  0.8702338860519394  1.0000
  C   C1        1.0  0.19321786085062662  0.24415777629530314  0.1784601360932078  1.0000
  C   C2        1.0  0.8067821387140676  0.7441577763379709  0.32153986400844026  1.0000
  C   C3        1.0  0.806782138800792  0.7558422237900322  0.8215398638653494  1.0000
  C   C4        1.0  0.19321786093735088  0.25584222374736454  0.6784601359501169  1.0000
  C   C5        1.0  0.3209377184425382  0.3504250516663232  0.1170748894394318  1.0000
  C   C6        1.0  0.679062281873955  0.850425051708991  0.38292511073894603  1.0000
  C   C7        1.0  0.6790622819606793  0.6495749484190122  0.8829251105958551  1.0000
  C   C8        1.0  0.3209377177774636  0.14957494837634447  0.6170748892196113  1.0000
  C   C9        1.0  0.31365194683441205  0.14612096919537956  0.10758555960971383  1.0000
  C   C10       1.0  0.686348053482081  0.6461209692380473  0.392414440568664  1.0000
  C   C11       1.0  0.6863480528170064  0.8538790308899558  0.8924144403488433  1.0000
  C   C12       1.0  0.3136519469211363  0.3538790308472881  0.6075855594666231  1.0000
  C   C13       1.0  0.3081664467903896  0.08292436213160528  0.027346533645335114  1.0000
  C   C14       1.0  0.6918335535261037  0.5829243621742729  0.47265346653304263  1.0000
  C   C15       1.0  0.6918335536128278  0.91707563795373  0.9726534663899519  1.0000
  C   C16       1.0  0.30816644687711386  0.4170756379110624  0.5273465335022443  1.0000
  C   C17       1.0  0.23252635079950634  0.14551736607786422  0.9719185730710453  1.0000
  C   C18       1.0  0.7674736489386365  0.6455173661205319  0.5280814267444212  1.0000
  C   C19       1.0  0.767473648851912  0.8544826340074712  0.028081426887511984  1.0000
  C   C20       1.0  0.23252635071278208  0.35448263396480345  0.471918573214136  1.0000
  C   C21       1.0  0.22534398539691192  0.08240637951165464  0.8982814909018134  1.0000
  C   C22       1.0  0.7746560150943144  0.5824063795543223  0.601718509548998  1.0000
  C   C23       1.0  0.7746560150063054  0.9175936205736807  0.10171850913347352  1.0000
  C   C24       1.0  0.22534398530890312  0.417593620531013  0.39828149048628897  1.0000
  C   C25       1.0  0.29395304630589075  0.9571851296784701  0.8790793400588504  1.0000
  C   C26       1.0  0.706046953432252  0.45718512963580243  0.620920659756616  1.0000
  C   C27       1.0  0.7060469533455278  0.042814870406865234  0.12092065989970693  1.0000
  C   C28       1.0  0.29395304621916646  0.5428148704495328  0.3790793402019411  1.0000
  C   C29       1.0  0.36975701819448437  0.8953920287642524  0.9339651299295837  1.0000
  C   C30       1.0  0.6302429822954573  0.39539202872158463  0.5660348699626125  1.0000
  C   C31       1.0  0.6302429822087331  0.10460797132108304  0.06603487010570341  1.0000
  C   C32       1.0  0.3697570181077601  0.6046079713637508  0.4339651300726744  1.0000
  C   C33       1.0  0.3766000779133894  0.9583099061928767  0.007867368855664771  1.0000
  C   C34       1.0  0.6233999224031037  0.45830990615020895  0.49213263132271307  1.0000
  C   C35       1.0  0.6233999224898281  0.041690093892458695  0.9921326311796222  1.0000
  C   C36       1.0  0.3766000772483148  0.5416900939351265  0.5078673686358443  1.0000
  C   C37       1.0  0.42707089834814216  0.41479018337635987  0.13936603701290648  1.0000
  C   C38       1.0  0.5729291012152676  0.9147901834190275  0.3606339625301263  1.0000
  C   C39       1.0  0.5729291013032765  0.5852098167089754  0.8606339629456508  1.0000
  C   C40       1.0  0.427070898436151  0.08520981666630781  0.639366037428431  1.0000
  C   C41       1.0  0.46907494765962626  0.5350638756484716  0.09344853510628211  1.0000
  C   C42       1.0  0.5309250526555823  0.03506387560580387  0.4065514645134804  1.0000
  C   C43       1.0  0.5309250527435911  0.46493612443686383  0.9065514649290048  1.0000
  C   C44       1.0  0.46907494774763503  0.9649361244795315  0.5934485355218067  1.0000
  C   C45       1.0  0.5689090845935763  0.5899260746190461  0.11150027660136641  1.0000
  C   C46       1.0  0.4310909149698335  0.08992607457637843  0.3884997229416663  1.0000
  C   C47       1.0  0.4310909150578423  0.41007392546628924  0.8884997233571909  1.0000
  C   C48       1.0  0.5689090846815851  0.9100739255089568  0.6115002770168909  1.0000
  C   C49       1.0  0.6278079897639119  0.5221995857695642  0.1753930052178236  1.0000
  C   C50       1.0  0.37219200980078226  0.022199585726896492  0.32460699488382444  1.0000
  C   C51       1.0  0.3721920098875065  0.4778004143157712  0.8246069947407336  1.0000
  C   C52       1.0  0.6278079898506363  0.9778004143584388  0.6753930050747328  1.0000
  C   C53       1.0  0.5861554085568875  0.40190679753991276  0.22153721758381384  1.0000
  C   C54       1.0  0.41384459175960564  0.9019067975825804  0.278462782594564  1.0000
  C   C55       1.0  0.4138445918463299  0.5980932025454226  0.7784627824514732  1.0000
  C   C56       1.0  0.5861554086436118  0.0980932025027549  0.7215372174407231  1.0000
  C   C57       1.0  0.48618250287823433  0.34977500589533606  0.2041553580169298  1.0000
  C   C58       1.0  0.5138174974382588  0.8497750059380037  0.295844642161448  1.0000
  C   C59       1.0  0.5138174975249831  0.6502249928736723  0.7958446420183571  1.0000
  C   C60       1.0  0.4861825022131598  0.15022499283100454  0.7041553577971092  1.0000
  C   C61       1.0  0.09701134734321429  0.8818128784832625  0.4802565285439101  1.0000
  C   C62       1.0  0.9029886529732789  0.38181287844059486  0.019743471634467716  1.0000
  C   C63       1.0  0.9029886523082044  0.11818712160207283  0.5197434714146472  1.0000
  C   C64       1.0  0.09701134742993854  0.6181871216447405  0.9802565284008192  1.0000
  C   C65       1.0  0.11488655862429469  0.9231812396498658  0.40093991525972766  1.0000
  C   C66       1.0  0.8851134409403996  0.42318123960719806  0.09906008484192044  1.0000
  C   C67       1.0  0.8851134410271239  0.0768187604354696  0.5990600846988297  1.0000
  C   C68       1.0  0.11488655871101897  0.5768187604781373  0.9009399151166367  1.0000
  C   C69       1.0  0.04559804046493109  0.7109037570638777  0.4921676216172812  1.0000
  C   C70       1.0  0.9544019590997631  0.21090375702120995  0.007832378484366824  1.0000
  C   C71       1.0  0.9544019591864875  0.28909624302145775  0.5078323783412759  1.0000
  C   C72       1.0  0.045598040551655374  0.7890962430641254  0.9921676214741905  1.0000
  N   N1        1.0  0.22164050831575247  0.10589038458982672  0.13971988651751635  1.0000
  N   N2        1.0  0.7783594920007407  0.6058903846324943  0.36028011366086143  1.0000
  N   N3        1.0  0.778359492087465  0.8941096154955086  0.8602801135177707  1.0000
  N   N4        1.0  0.22164050840247673  0.39410961545284096  0.6397198863744255  1.0000
  N   N5        1.0  0.25393887561558404  0.3837437618367623  0.1737992390299282  1.0000
  N   N6        1.0  0.7460611239478256  0.8837437618794299  0.32620076051310454  1.0000
  N   N7        1.0  0.7460611240358346  0.616256238248573  0.826200760928629  1.0000
  N   N8        1.0  0.25393887570359286  0.1162562382059054  0.6737992394454526  1.0000
  N   N9        1.0  0.11595906127355661  0.24194136311808034  0.21733542971677303  1.0000
  N   N10       1.0  0.8840409390429365  0.7419413631607481  0.28266457046160476  1.0000
  N   N11       1.0  0.8840409391296608  0.7580586369672551  0.782664570318514  1.0000
  N   N12       1.0  0.11595906136028089  0.25805863692458736  0.7173354295736821  1.0000
  N   N13       1.0  0.10659570622739868  0.7455079146370736  0.20585063969533074  1.0000
  N   N14       1.0  0.8934042933372957  0.24550791459440585  0.29414936040631734  1.0000
  N   N15       1.0  0.89340429342402  0.25449208544826185  0.7941493602632265  1.0000
  N   N16       1.0  0.10659570631412296  0.7544920854909295  0.7058506395522399  1.0000
  O   O1        1.0  0.19461074874764497  0.749657679323815  0.18586991243137202  1.0000
  O   O2        1.0  0.8053892508170494  0.24965767928114738  0.314130087670276  1.0000
  O   O3        1.0  0.8053892509037737  0.2503423207615203  0.8141300875271852  1.0000
  O   O4        1.0  0.19461074883436924  0.750342320804188  0.6858699122882812  1.0000
  O   O5        1.0  0.0794908339399363  0.6124180100178103  0.24006765628815954  1.0000
  O   O6        1.0  0.920509165624758  0.11241800997514255  0.25993234381348856  1.0000
  O   O7        1.0  0.9205091657114822  0.38758199006752514  0.7599323436703976  1.0000
  O   O8        1.0  0.07949083402666059  0.8875819901101928  0.7400676561450686  1.0000
  O   O9        1.0  0.047993515013003675  0.8743316188541355  0.1911958927403316  1.0000
  O   O10       1.0  0.9520064853022051  0.3743316188114678  0.3088041068794309  1.0000
  O   O11       1.0  0.9520064853902137  0.1256683812311999  0.8088041072949553  1.0000
  O   O12       1.0  0.047993514349213603  0.6256683812738676  0.6911958930791264  1.0000
  O   O13       1.0  0.12251501667928759  0.9849067998195213  0.5326736500002978  1.0000
  O   O14       1.0  0.8774849830588553  0.48490679977685375  0.9673263498151686  1.0000
  O   O15       1.0  0.877484982972131  0.015093200265813922  0.46732634995825956  1.0000
  O   O16       1.0  0.12251501659256331  0.5150932003084816  0.03267365014338852  1.0000
