data_image0
_chemical_formula_structural       H16C12N6O6I2
_chemical_formula_sum              "H16 C12 N6 O6 I2"
_cell_length_a       4.473121905607044
_cell_length_b       8.105619862206746
_cell_length_c       13.02057702448092
_cell_angle_alpha    80.50157590473118
_cell_angle_beta     84.76379909549895
_cell_angle_gamma    80.15932455826346

_space_group_name_H-M_alt    "P 1"
_space_group_IT_number       1

loop_
  _space_group_symop_operation_xyz
  'x, y, z'

loop_
  _atom_site_type_symbol
  _atom_site_label
  _atom_site_symmetry_multiplicity
  _atom_site_fract_x
  _atom_site_fract_y
  _atom_site_fract_z
  _atom_site_occupancy
  H   H1        1.0  0.8466275505796154  0.2984781955647812  0.24618390032125995  1.0000
  H   H2        1.0  0.1533724500352231  0.7015218044907839  0.7538161001765795  1.0000
  H   H3        1.0  0.2860303846258093  0.5831238592529867  0.44493319975814277  1.0000
  H   H4        1.0  0.7139696141401509  0.4168761395522697  0.5550668007358655  1.0000
  H   H5        1.0  0.5942807260626968  0.4377542250397529  0.10291557027033307  1.0000
  H   H6        1.0  0.405719272316847  0.5622457750173919  0.8970844302246669  1.0000
  H   H7        1.0  0.6268108824697664  0.9042883598886879  0.27741064054269465  1.0000
  H   H8        1.0  0.3731891185314886  0.09571163891498903  0.7225893599541532  1.0000
  H   H9        1.0  0.48864828515041636  0.030470797055211468  0.11745352271222646  1.0000
  H   H10       1.0  0.5113517156196089  0.9695292031948785  0.8825464770052834  1.0000
  H   H11       1.0  0.29433512443275783  0.14834864612997145  0.3944348161345926  1.0000
  H   H12       1.0  0.7056648765684972  0.8516513526737055  0.6055651843622553  1.0000
  H   H13       1.0  0.36106605136314496  0.9241771280956862  0.436674098989147  1.0000
  H   H14       1.0  0.6389339471715856  0.07582287215598307  0.5633259007255234  1.0000
  H   H15       1.0  0.028516106836376648  0.020668868549474993  0.3715573250079741  1.0000
  H   H16       1.0  0.9714838915431673  0.9793311315076698  0.6284426754870259  1.0000
  C   C1        1.0  0.5886896074936588  0.4278463302237163  0.36018954140887566  1.0000
  C   C2        1.0  0.41131039088588506  0.5721536698334283  0.6398104590861244  1.0000
  C   C3        1.0  0.15916837239586357  0.6397044706665103  0.29075203951245215  1.0000
  C   C4        1.0  0.8408316261388671  0.3602955295851591  0.7092479602022181  1.0000
  C   C5        1.0  0.2649425679662841  0.6011433577845781  0.18780819715111602  1.0000
  C   C6        1.0  0.7350574305684465  0.39885664246709135  0.8121918025635543  1.0000
  C   C7        1.0  0.5078187094025558  0.47677732230937514  0.17758818237217305  1.0000
  C   C8        1.0  0.4921812913674695  0.5232226779407148  0.8224118173453367  1.0000
  C   C9        1.0  0.33990764002896273  0.07122461170593009  0.18416841946266496  1.0000
  C   C10       1.0  0.6600923607410626  0.9287753885441599  0.8158315802548449  1.0000
  C   C11       1.0  0.271070521100923  0.02447849784268556  0.37506409875424307  1.0000
  C   C12       1.0  0.7289294800555186  0.975521501155516  0.6249359009622751  1.0000
  N   N1        1.0  0.6609361824434552  0.39091233402720776  0.26073535911060436  1.0000
  N   N2        1.0  0.33906381817138326  0.6090876660283576  0.7392646413872352  1.0000
  N   N3        1.0  0.33793414988398585  0.5497453421385166  0.3702122318977318  1.0000
  N   N4        1.0  0.6620658508860394  0.45025465811157317  0.6297877678197781  1.0000
  N   N5        1.0  0.433736264236325  0.994428587919434  0.27641648329127916  1.0000
  N   N6        1.0  0.5662637363785135  0.005571412136131336  0.7235835172065604  1.0000
  O   O1        1.0  0.7406060153972177  0.3536021905877764  0.43471886796908943  1.0000
  O   O2        1.0  0.25939398521762075  0.6463978094677888  0.5652811325287501  1.0000
  O   O3        1.0  0.9298317801676798  0.7410975306429852  0.3130451859852054  1.0000
  O   O4        1.0  0.07016821836705092  0.2589024696086842  0.6869548137294649  1.0000
  O   O5        1.0  0.10721166861750815  0.18144138644165592  0.1692464255799343  1.0000
  O   O6        1.0  0.8927883303036391  0.8185586125581251  0.8307535741337443  1.0000
  I   I1        1.0  0.056164798957027036  0.7308461187809747  0.05422485883946355  1.0000
  I   I2        1.0  0.9438351994225169  0.2691538812761701  0.9457751416555363  1.0000
