data_image0
_chemical_formula_structural       H24C40N4F6I6
_chemical_formula_sum              "H24 C40 N4 F6 I6"
_cell_length_a       9.534709638966419
_cell_length_b       9.601536704997436
_cell_length_c       11.661415785329114
_cell_angle_alpha    82.48425381180535
_cell_angle_beta     88.05462904194275
_cell_angle_gamma    71.02771632821191

_space_group_name_H-M_alt    "P 1"
_space_group_IT_number       1

loop_
  _space_group_symop_operation_xyz
  'x, y, z'

loop_
  _atom_site_type_symbol
  _atom_site_label
  _atom_site_symmetry_multiplicity
  _atom_site_fract_x
  _atom_site_fract_y
  _atom_site_fract_z
  _atom_site_occupancy
  H   H1        1.0  0.8187596587479226  0.5094534877680145  0.39125536106034997  1.0000
  H   H2        1.0  0.18124034175283696  0.4905465119283133  0.6087446393113964  1.0000
  H   H3        1.0  0.5956636599871078  0.5088296007482784  0.28498871969066725  1.0000
  H   H4        1.0  0.4043363394426362  0.49117039911779936  0.7150112798184244  1.0000
  H   H5        1.0  0.38373476317368865  0.4150191238300722  0.27653160332014004  1.0000
  H   H6        1.0  0.6162652373270708  0.5849808758662555  0.7234683970516064  1.0000
  H   H7        1.0  0.24036397567646897  0.2544678912515654  0.365299289357627  1.0000
  H   H8        1.0  0.7596360248242904  0.7455321084447625  0.6347007110141193  1.0000
  H   H9        1.0  0.20119530079232037  0.0787849924957989  0.5294096442288904  1.0000
  H   H10       1.0  0.798804698654732  0.9212150072155545  0.47059035614512446  1.0000
  H   H11       1.0  0.2847208753888634  0.9307833438384455  0.7210879366873424  1.0000
  H   H12       1.0  0.7152791247662206  0.06921665695722422  0.2789120636954061  1.0000
  H   H13       1.0  0.9008053763924306  0.43938582154528  0.643825501261876  1.0000
  H   H14       1.0  0.09919462410832873  0.5606141781510479  0.3561744991098703  1.0000
  H   H15       1.0  0.020966394354143443  0.35192835095738817  0.536316920904232  1.0000
  H   H16       1.0  0.9790336061293076  0.6480716488936639  0.4636830786025914  1.0000
  H   H17       1.0  0.9717152014484781  0.24309149721430742  0.6578629709530636  1.0000
  H   H18       1.0  0.028284799052281224  0.7569085024820204  0.34213702941868285  1.0000
  H   H19       1.0  0.6150141371186686  0.9509172102576148  0.8822061707776617  1.0000
  H   H20       1.0  0.3849858623110753  0.04908278960846317  0.11779382873143013  1.0000
  H   H21       1.0  0.5501853080842184  0.8094244676037238  0.842644652404925  1.0000
  H   H22       1.0  0.449814691362834  0.19057553210762992  0.15735534796908981  1.0000
  H   H23       1.0  0.4305958458387293  0.9515746771832057  0.9154683388143229  1.0000
  H   H24       1.0  0.56940415466203  0.048425322513122315  0.08453166155742349  1.0000
  C   C1        1.0  0.9363178415699447  0.22307425330521138  0.1699591842331201  1.0000
  C   C2        1.0  0.06368215858513925  0.7769257474904583  0.8300408161496285  1.0000
  C   C3        1.0  0.9307332048777862  0.36955781973616275  0.17280302652829416  1.0000
  C   C4        1.0  0.06926679562297308  0.630442179960165  0.8271969738434521  1.0000
  C   C5        1.0  0.8411804953574197  0.488484809528317  0.0981230483369826  1.0000
  C   C6        1.0  0.15881950374395737  0.5115151912823783  0.9018769520480343  1.0000
  C   C7        1.0  0.758748107738302  0.4555553075488839  0.01502482543771702  1.0000
  C   C8        1.0  0.2412518927624574  0.5444446921474438  0.9849751749340294  1.0000
  C   C9        1.0  0.7619940264991184  0.31113010262227564  0.005649080243496578  1.0000
  C   C10       1.0  0.23800597398433265  0.6888698972287763  0.9943509192633269  1.0000
  C   C11       1.0  0.851473717901644  0.19750323979338216  0.0846802465479503  1.0000
  C   C12       1.0  0.14852628259911552  0.8024967599029458  0.9153197538237962  1.0000
  C   C13       1.0  0.7980571832969994  0.3435871732156643  0.5307059335208122  1.0000
  C   C14       1.0  0.20194281615005294  0.6564128264956892  0.4692940668532026  1.0000
  C   C15       1.0  0.7542108737479339  0.43846048403190124  0.4253541206579372  1.0000
  C   C16       1.0  0.24578912675282563  0.5615395156644266  0.5746458797138092  1.0000
  C   C17       1.0  0.6307674016535535  0.43914247650919475  0.3673162522153938  1.0000
  C   C18       1.0  0.3692325977934987  0.5608575232021588  0.6326837481586209  1.0000
  C   C19       1.0  0.5458839843699002  0.3504877812076673  0.4160049249807977  1.0000
  C   C20       1.0  0.45411601505984384  0.6495122186584104  0.5839950745282941  1.0000
  C   C21       1.0  0.4165459494874623  0.34742770221571706  0.3599099630191515  1.0000
  C   C22       1.0  0.5834540506503133  0.6525722987346769  0.640090036498674  1.0000
  C   C23       1.0  0.3365025469188666  0.2609401157650788  0.4094460792080169  1.0000
  C   C24       1.0  0.6634974532362172  0.7390598850305908  0.5905539211747318  1.0000
  C   C25       1.0  0.37758456121849276  0.17614345789416588  0.5200924867816403  1.0000
  C   C26       1.0  0.6224154382285596  0.8238565418171878  0.47990751359237444  1.0000
  C   C27       1.0  0.29728528829468953  0.08536350510379526  0.5737271208890514  1.0000
  C   C28       1.0  0.7027147118430861  0.9146364958465987  0.4262728786287743  1.0000
  C   C29       1.0  0.34290948402465704  0.004515300864870128  0.6798799816407503  1.0000
  C   C30       1.0  0.6570905154223954  0.9954846988464833  0.32012001873326457  1.0000
  C   C31       1.0  0.46726115800558143  0.017192633325259134  0.7357582167591914  1.0000
  C   C32       1.0  0.5327388414414712  0.9828073663860942  0.26424178361482337  1.0000
  C   C33       1.0  0.5037823776958245  0.17894151344339593  0.5804052644380076  1.0000
  C   C34       1.0  0.49621762278762666  0.8210584864076562  0.41959473506881584  1.0000
  C   C35       1.0  0.5938575139440594  0.2635281149920526  0.5247651131006091  1.0000
  C   C36       1.0  0.4061424861937161  0.7364718859583413  0.47523488641721656  1.0000
  C   C37       1.0  0.9312970450069429  0.34306806757909486  0.5953406208994991  1.0000
  C   C38       1.0  0.06870295549381644  0.6569319321172329  0.40465937947224734  1.0000
  C   C39       1.0  0.5188138722124294  0.9283631556037506  0.8507001455687622  1.0000
  C   C40       1.0  0.48118612827102186  0.07163684424730155  0.14929985393806128  1.0000
  N   N1        1.0  0.7209613863183012  0.25717073326885104  0.5775926146556241  1.0000
  N   N2        1.0  0.2790386127657674  0.7428292676965687  0.42240738486446994  1.0000
  N   N3        1.0  0.5431102530226694  0.10412908008376846  0.687676688562721  1.0000
  N   N4        1.0  0.4568897471324145  0.8958709207119012  0.3123233118200275  1.0000
  F   F1        1.0  0.017034454537048042  0.39766645379805676  0.2509109415294386  1.0000
  F   F2        1.0  0.9829655445643289  0.6023335470126386  0.7490890588555784  1.0000
  F   F3        1.0  0.6748784468310809  0.5681462462600251  0.9388272563231712  1.0000
  F   F4        1.0  0.32512155259866304  0.43185375360605255  0.06117274318592061  1.0000
  F   F5        1.0  0.8588157143094123  0.055318613219647865  0.07670144987812812  1.0000
  F   F6        1.0  0.1411842861913471  0.9446813864766799  0.9232985504936183  1.0000
  I   I1        1.0  0.07547407339484807  0.04683247132091474  0.28192727853434835  1.0000
  I   I2        1.0  0.9245259271059112  0.953167528375413  0.7180727218373981  1.0000
  I   I3        1.0  0.8296084529335327  0.7065047296770056  0.11179267308078357  1.0000
  I   I4        1.0  0.1703915464962113  0.2934952701890721  0.8882073264283084  1.0000
  I   I5        1.0  0.6538713384708781  0.2615831428751374  0.8703129357555787  1.0000
  I   I6        1.0  0.3461286606131906  0.7384168580902822  0.12968706376451541  1.0000
