data_image0
_chemical_formula_structural       H76C68N8Cl4Br4
_chemical_formula_sum              "H76 C68 N8 Cl4 Br4"
_cell_length_a       8.136525973424876
_cell_length_b       18.122612549716074
_cell_length_c       10.948573086832358
_cell_angle_alpha    90.0
_cell_angle_beta     105.59729258275104
_cell_angle_gamma    90.0

_space_group_name_H-M_alt    "P 1"
_space_group_IT_number       1

loop_
  _space_group_symop_operation_xyz
  'x, y, z'

loop_
  _atom_site_type_symbol
  _atom_site_label
  _atom_site_symmetry_multiplicity
  _atom_site_fract_x
  _atom_site_fract_y
  _atom_site_fract_z
  _atom_site_occupancy
  H   H1        1.0  0.725895067450292  0.9843909475557096  0.42870597746380973  1.0000
  H   H2        1.0  0.7741049325067848  0.48439094782377456  0.571294022515208  1.0000
  H   H3        1.0  0.2741049326228016  0.015609052459957369  0.5712940228452572  1.0000
  H   H4        1.0  0.22589506720553193  0.5156090521918925  0.4287059768456763  1.0000
  H   H5        1.0  0.9078508472607512  0.056289238497016926  0.6050319262557313  1.0000
  H   H6        1.0  0.5921491526963257  0.5562892382289519  0.39496807372328646  1.0000
  H   H7        1.0  0.0921491528123425  0.9437107615186501  0.3949680740533357  1.0000
  H   H8        1.0  0.4078508473767679  0.443710761786715  0.6050319265857804  1.0000
  H   H9        1.0  0.9576102042494191  0.17000090034194698  0.7299504835829183  1.0000
  H   H10       1.0  0.5423897957076577  0.6700009006256789  0.27004951639609953  1.0000
  H   H11       1.0  0.042389795462897645  0.82999909967372  0.2700495157779661  1.0000
  H   H12       1.0  0.4576102043654359  0.32999909938998806  0.7299504839129675  1.0000
  H   H13       1.0  0.9095176106715385  0.3048850156037003  0.7486966683198842  1.0000
  H   H14       1.0  0.5904823892855383  0.8048850158874322  0.2513033316591335  1.0000
  H   H15       1.0  0.09048238940155513  0.6951149844119666  0.2513033319891827  1.0000
  H   H16       1.0  0.4095176107875553  0.19511498412823478  0.7486966686499335  1.0000
  H   H17       1.0  0.7016367061404457  0.37074526984274486  0.5748029758742366  1.0000
  H   H18       1.0  0.7983632938166311  0.8707452695746799  0.4251970241047812  1.0000
  H   H19       1.0  0.298363293932648  0.6292547301729221  0.4251970244348305  1.0000
  H   H20       1.0  0.20163670589568564  0.12925473044098704  0.5748029752561031  1.0000
  H   H21       1.0  0.497504841600984  0.3706780013958443  0.36096235669357946  1.0000
  H   H22       1.0  0.00249515822734961  0.8706780011277794  0.6390376429973541  1.0000
  H   H23       1.0  0.5024951584721097  0.6293219986198227  0.6390376436154875  1.0000
  H   H24       1.0  0.9975048414849672  0.1293219988878876  0.36096235636353025  1.0000
  H   H25       1.0  0.37281982496643984  0.30796164430980116  0.16092382733435756  1.0000
  H   H26       1.0  0.12718017486189379  0.8079616440417363  0.8390761723565762  1.0000
  H   H27       1.0  0.6271801751066537  0.6920383557058658  0.8390761729747094  1.0000
  H   H28       1.0  0.8728198248504231  0.19203835597393076  0.16092382700430832  1.0000
  H   H29       1.0  0.345941074943121  0.9329565664783189  0.20147312998030625  1.0000
  H   H30       1.0  0.15405892488521258  0.43295656674638383  0.7985268697106274  1.0000
  H   H31       1.0  0.6540589251299725  0.0670434335373481  0.7985268703287607  1.0000
  H   H32       1.0  0.8459410748271041  0.5670434332692831  0.20147312965025704  1.0000
  H   H33       1.0  0.5746302848986793  0.9424561118406511  0.24177240727864968  1.0000
  H   H34       1.0  0.9253697150583977  0.4424561115569193  0.7582275927003681  1.0000
  H   H35       1.0  0.42536971481363756  0.057543888175015816  0.7582275920822347  1.0000
  H   H36       1.0  0.07463028501469603  0.5575438884587478  0.2417724076086989  1.0000
  H   H37       1.0  0.4670884116368748  0.9299134583255231  0.3635353331543746  1.0000
  H   H38       1.0  0.03291158941540873  0.429913458593588  0.636464666522883  1.0000
  H   H39       1.0  0.5329115892993919  0.07008654169014386  0.6364646661928337  1.0000
  H   H40       1.0  0.9670884118816349  0.5700865414220789  0.36353533377250796  1.0000
  H   H41       1.0  0.17499512784808532  0.022996113769839947  0.23606801881715997  1.0000
  H   H42       1.0  0.3250048723410251  0.5229961140535719  0.7639319818219562  1.0000
  H   H43       1.0  0.8250048722250082  0.977003886245827  0.763931981491907  1.0000
  H   H44       1.0  0.6749951277320685  0.47700388596209514  0.23606801848711076  1.0000
  H   H45       1.0  0.24880276406841395  0.11632962378997774  0.25963756297732005  1.0000
  H   H46       1.0  0.2511972357599196  0.6163296240737097  0.7403624367136136  1.0000
  H   H47       1.0  0.7511972356439027  0.8836703762256892  0.7403624363835644  1.0000
  H   H48       1.0  0.748802764313174  0.3836703759419573  0.2596375635954534  1.0000
  H   H49       1.0  0.23759945063167442  0.06889320822673332  0.11445069787087636  1.0000
  H   H50       1.0  0.2624005491966592  0.5688932085104652  0.8855493018200573  1.0000
  H   H51       1.0  0.7624005490806424  0.9311067917889335  0.885549301490008  1.0000
  H   H52       1.0  0.7375994508764345  0.43110679150520176  0.11445069848900975  1.0000
  H   H53       1.0  0.27747275170342606  0.17089406737046428  0.924168289088974  1.0000
  H   H54       1.0  0.2225272481249075  0.6708940671023994  0.07583171060195962  1.0000
  H   H55       1.0  0.7225272483696675  0.8291059326452027  0.075831711220093  1.0000
  H   H56       1.0  0.7774727515874094  0.3291059329132676  0.9241682887589248  1.0000
  H   H57       1.0  0.20788346516458145  0.22707019689964467  0.03195171789296299  1.0000
  H   H58       1.0  0.29211653466375215  0.7270701966315797  0.9680482817979706  1.0000
  H   H59       1.0  0.7921165345477352  0.7729298031160223  0.9680482814679213  1.0000
  H   H60       1.0  0.7078834654093416  0.27292980338408723  0.03195171851109638  1.0000
  H   H61       1.0  0.37738717592042714  0.259353211194356  0.9693826084031362  1.0000
  H   H62       1.0  0.12261282390790647  0.7593532109262912  0.030617391287797457  1.0000
  H   H63       1.0  0.6226128241526665  0.740646788821311  0.030617391905930838  1.0000
  H   H64       1.0  0.8773871758044103  0.24064678908937587  0.9693826080730868  1.0000
  H   H65       1.0  0.5734447795123532  0.13029117758394018  0.9831058839029443  1.0000
  H   H66       1.0  0.9265552204447237  0.6302911773158753  0.01689411607607338  1.0000
  H   H67       1.0  0.42655522056074047  0.8697088224317268  0.0168941164061226  1.0000
  H   H68       1.0  0.07344477962836991  0.3697088226997917  0.9831058842329936  1.0000
  H   H69       1.0  0.6515345384076648  0.0990961311495972  0.14209484126141553  1.0000
  H   H70       1.0  0.848465461549412  0.5990961308815322  0.8579051587176023  1.0000
  H   H71       1.0  0.34846546166542874  0.9009038688660699  0.8579051590476514  1.0000
  H   H72       1.0  0.1515345381629048  0.4009038691341347  0.14209484064328215  1.0000
  H   H73       1.0  0.45759388163364384  0.06224160048147539  0.042397235424449314  1.0000
  H   H74       1.0  0.04240611819468974  0.5622416002134105  0.9576027642664844  1.0000
  H   H75       1.0  0.542406118078673  0.9377583995341916  0.9576027639364351  1.0000
  H   H76       1.0  0.9575938818784039  0.4377583998022565  0.042397236042582706  1.0000
  C   C1        1.0  0.5669952436229888  0.0778079129668361  0.34266411449263356  1.0000
  C   C2        1.0  0.933004756334088  0.5778079126987712  0.6573358854863842  1.0000
  C   C3        1.0  0.4330047564501047  0.9221920870488308  0.6573358858164335  1.0000
  C   C4        1.0  0.06699524337822885  0.4221920873168958  0.3426641138745002  1.0000
  C   C5        1.0  0.7072306315705467  0.04352668456802374  0.4336489900057241  1.0000
  C   C6        1.0  0.7927693683865301  0.5435266842999588  0.5663510099732937  1.0000
  C   C7        1.0  0.2927693685025469  0.9564733154476432  0.5663510103033428  1.0000
  C   C8        1.0  0.20723063132578667  0.45647331571570815  0.4336489893875908  1.0000
  C   C9        1.0  0.8071410412737516  0.08327104416430527  0.5321958420343471  1.0000
  C   C10       1.0  0.6928589586833253  0.5832710438962404  0.4678041579446708  1.0000
  C   C11       1.0  0.1928589584385652  0.9167289558513617  0.46780415732653735  1.0000
  C   C12       1.0  0.30714104138976833  0.4167289561194266  0.5321958423643962  1.0000
  C   C13       1.0  0.7777063768952664  0.1599853808078805  0.5463127671153584  1.0000
  C   C14       1.0  0.7222936230618103  0.6599853805398155  0.45368723286365936  1.0000
  C   C15       1.0  0.22229362317782714  0.8400146192077864  0.45368723319370863  1.0000
  C   C16       1.0  0.27770637665050646  0.34001461947585143  0.5463127664972249  1.0000
  C   C17       1.0  0.8680985559035368  0.19963719635206142  0.6538044504414697  1.0000
  C   C18       1.0  0.6319014452774901  0.6996371966357933  0.346195549523872  1.0000
  C   C19       1.0  0.13190144503273002  0.8003628036636056  0.3461955489057386  1.0000
  C   C20       1.0  0.36809855601955355  0.30036280337987364  0.6538044507715189  1.0000
  C   C21       1.0  0.8411149015164225  0.27506726065707887  0.6638568829206454  1.0000
  C   C22       1.0  0.6588850984406542  0.7750672609408108  0.33614311705837235  1.0000
  C   C23       1.0  0.1588850981958942  0.7249327393585882  0.336143116440239  1.0000
  C   C24       1.0  0.34111490163243935  0.22493273907485622  0.6638568832506946  1.0000
  C   C25       1.0  0.7261301098891602  0.3120831383711621  0.5657918861018342  1.0000
  C   C26       1.0  0.7738698900679167  0.8120831381030972  0.4342081138771836  1.0000
  C   C27       1.0  0.27386989018393354  0.6879168616445049  0.4342081142072328  1.0000
  C   C28       1.0  0.22613011000517688  0.18791686191256982  0.5657918864318834  1.0000
  C   C29       1.0  0.6363298066862698  0.2747739056021487  0.4553111213654071  1.0000
  C   C30       1.0  0.863670193270807  0.7747739058858807  0.5446888786136107  1.0000
  C   C31       1.0  0.3636701930260469  0.7252260944135183  0.5446888779954773  1.0000
  C   C32       1.0  0.13632980680228665  0.22522609412978634  0.45531112169545634  1.0000
  C   C33       1.0  0.5205889022394226  0.3117804066328463  0.35290323591537126  1.0000
  C   C34       1.0  0.9794110977176543  0.8117804063647813  0.6470967640636466  1.0000
  C   C35       1.0  0.4794110974728942  0.6882195933828207  0.6470967634455131  1.0000
  C   C36       1.0  0.0205889023554394  0.18821959365088564  0.35290323624542047  1.0000
  C   C37       1.0  0.4459774978690474  0.27619881605196156  0.2416182432227714  1.0000
  C   C38       1.0  0.05402250232006303  0.7761988157838966  0.7583817574163447  1.0000
  C   C39       1.0  0.5540225022040463  0.7238011839637054  0.7583817570862955  1.0000
  C   C40       1.0  0.9459774977530305  0.22380118423177034  0.24161824289272216  1.0000
  C   C41       1.0  0.48039604311397055  0.1999123090040768  0.22508520300512277  1.0000
  C   C42       1.0  0.019603956714363074  0.699912308736012  0.774914796685811  1.0000
  C   C43       1.0  0.5196039569591231  0.8000876910115902  0.7749147973039442  1.0000
  C   C44       1.0  0.9803960429979538  0.30008769127965507  0.22508520267507356  1.0000
  C   C45       1.0  0.5659410018947744  0.15753927377566374  0.3352021155848006  1.0000
  C   C46       1.0  0.9340589980623024  0.6575392735075989  0.6647978843942172  1.0000
  C   C47       1.0  0.4340589978175424  0.8424607262400032  0.6647978837760837  1.0000
  C   C48       1.0  0.06594100201079116  0.3424607259562713  0.3352021159148499  1.0000
  C   C49       1.0  0.6589617813789186  0.19712170197315002  0.44512018045673807  1.0000
  C   C50       1.0  0.8410382185781582  0.6971217017050851  0.5548798195222798  1.0000
  C   C51       1.0  0.34103821833339815  0.802878298042517  0.5548798189041464  1.0000
  C   C52       1.0  0.15896178149493542  0.3028782983105819  0.4451201807867873  1.0000
  C   C53       1.0  0.4581287133704284  0.955433439439242  0.2708955055564711  1.0000
  C   C54       1.0  0.04187128681868201  0.455433439707307  0.7291044950826451  1.0000
  C   C55       1.0  0.5418712867026654  0.04456656057642493  0.7291044947525959  1.0000
  C   C56       1.0  0.9581287132544116  0.5445665603083599  0.27089550522642186  1.0000
  C   C57       1.0  0.2669190964010723  0.06303870189057803  0.21803884286731245  1.0000
  C   C58       1.0  0.23308090342726137  0.5630387016225131  0.7819611568236212  1.0000
  C   C59       1.0  0.7330809036720213  0.936961298125089  0.7819611574417544  1.0000
  C   C60       1.0  0.7669190962850555  0.43696129839315384  0.21803884253726324  1.0000
  C   C61       1.0  0.3204526714323952  0.21027043697734968  0.0020461352332848386  1.0000
  C   C62       1.0  0.1795473296198884  0.7102704367092848  0.9979538644439728  1.0000
  C   C63       1.0  0.6795473282799215  0.7897295630383173  0.9979538641275995  1.0000
  C   C64       1.0  0.8204526716771552  0.2897295633063822  0.0020461358514182247  1.0000
  C   C65       1.0  0.5356437807958506  0.11236027004461353  0.06772895726894275  1.0000
  C   C66       1.0  0.9643562191612262  0.6123602703283454  0.932271042710075  1.0000
  C   C67       1.0  0.464356219277243  0.8876397299710534  0.9322710430401244  1.0000
  C   C68       1.0  0.03564378055109063  0.3876397296873216  0.06772895665080936  1.0000
  N   N1        1.0  0.43822073389666094  0.035283242316517874  0.27539639504662056  1.0000
  N   N2        1.0  0.06177926593167259  0.535283242048453  0.7246036046443131  1.0000
  N   N3        1.0  0.5617792658156557  0.9647167576991491  0.7246036043142638  1.0000
  N   N4        1.0  0.9382207341414209  0.46471675796721407  0.27539639566475393  1.0000
  N   N5        1.0  0.44079968540790265  0.17212715062149644  0.1057510623454047  1.0000
  N   N6        1.0  0.05920031564438089  0.6721271509052283  0.894248937331853  1.0000
  N   N7        1.0  0.5592003158891409  0.8278728493941705  0.8942489379499862  1.0000
  N   N8        1.0  0.9407996852918858  0.3278728491104387  0.10575106201535547  1.0000
  Cl  Cl1       1.0  0.4356965439200835  0.39027594065684584  0.9457219039978163  1.0000
  Cl  Cl2       1.0  0.06430345590825014  0.8902759409405777  0.05427809569311738  1.0000
  Cl  Cl3       1.0  0.5643034557922334  0.6097240593588212  0.05427809536306817  1.0000
  Cl  Cl4       1.0  0.9356965441648435  0.10972405907508924  0.9457219046159495  1.0000
  Br  Br1       1.0  0.6493771640127342  0.4634191437333121  0.8200121640277079  1.0000
  Br  Br2       1.0  0.8506228359443427  0.9634191434652473  0.1799878359513098  1.0000
  Br  Br3       1.0  0.3506228356995826  0.5365808562823549  0.17998783533317642  1.0000
  Br  Br4       1.0  0.149377164128751  0.036580856550419726  0.8200121643577573  1.0000
