data_image0
_chemical_formula_structural       H38C38N4O8S2Br2
_chemical_formula_sum              "H38 C38 N4 O8 S2 Br2"
_cell_length_a       9.812295371091999
_cell_length_b       9.833380017485213
_cell_length_c       10.141414631573339
_cell_angle_alpha    90.94938302069608
_cell_angle_beta     79.10031862159778
_cell_angle_gamma    75.91499070502984

_space_group_name_H-M_alt    "P 1"
_space_group_IT_number       1

loop_
  _space_group_symop_operation_xyz
  'x, y, z'

loop_
  _atom_site_type_symbol
  _atom_site_label
  _atom_site_symmetry_multiplicity
  _atom_site_fract_x
  _atom_site_fract_y
  _atom_site_fract_z
  _atom_site_occupancy
  H   H1        1.0  0.8851716763817421  0.001404580164514571  0.2971151683591967  1.0000
  H   H2        1.0  0.11482832430639416  0.9985954195984355  0.7028848314452601  1.0000
  H   H3        1.0  0.04746873754800498  0.16180032547835124  0.08194895495266716  1.0000
  H   H4        1.0  0.9525312621218871  0.8381996742887987  0.9180510448423062  1.0000
  H   H5        1.0  0.6651273778829401  0.9963714461197006  0.2520538089828016  1.0000
  H   H6        1.0  0.3348726223315246  0.0036285547471028275  0.7479461918418155  1.0000
  H   H7        1.0  0.4936522002011973  0.06556230540908621  0.09666560030463589  1.0000
  H   H8        1.0  0.5063477994686948  0.9344376943580637  0.9033343994903376  1.0000
  H   H9        1.0  0.5577745433712337  0.19403810052375334  0.8957695328083423  1.0000
  H   H10       1.0  0.44222545731690266  0.8059618992391966  0.10423046699611466  1.0000
  H   H11       1.0  0.7876249441321371  0.2635551711599524  0.852962721796752  1.0000
  H   H12       1.0  0.21237505553775504  0.7364448286071975  0.14703727799822133  1.0000
  H   H13       1.0  0.8906178317008535  0.4173461582208537  0.8153909873747641  1.0000
  H   H14       1.0  0.10938216873322636  0.5826538425914082  0.18460901244364836  1.0000
  H   H15       1.0  0.3992423009743079  0.4336927736724004  0.9343560824404255  1.0000
  H   H16       1.0  0.6007576997138284  0.5663072260905496  0.0656439173640316  1.0000
  H   H17       1.0  0.32013855750207565  0.5700024739755825  0.840658105799206  1.0000
  H   H18       1.0  0.67986144191376  0.4299975268408793  0.1593418940097229  1.0000
  H   H19       1.0  0.7675923494435243  0.42682189532989645  0.521851402223527  1.0000
  H   H20       1.0  0.23240765124461196  0.5731781044330537  0.47814859758092987  1.0000
  H   H21       1.0  0.725686145542231  0.2385253088465576  0.3834325704011164  1.0000
  H   H22       1.0  0.27431385489184884  0.7614746919657042  0.616567429417296  1.0000
  H   H23       1.0  0.5106322644037901  0.1430504060746519  0.45919809161199776  1.0000
  H   H24       1.0  0.4893677352661021  0.8569495936924981  0.5408019081829756  1.0000
  H   H25       1.0  0.33822458874459393  0.24229911822393108  0.668450970009417  1.0000
  H   H26       1.0  0.6617754119435425  0.7577008815390189  0.3315490297950399  1.0000
  H   H27       1.0  0.9729913062864114  0.6335528297373006  0.43754684495040397  1.0000
  H   H28       1.0  0.02700869290980911  0.36644717113370273  0.5624531558647297  1.0000
  H   H29       1.0  0.7956010417224387  0.6703723776285044  0.5399142929045857  1.0000
  H   H30       1.0  0.2043989574737817  0.32962762324249895  0.460085707910548  1.0000
  H   H31       1.0  0.9521111433628937  0.6490833456568995  0.6174090201572963  1.0000
  H   H32       1.0  0.04788885608738315  0.350916654164792  0.38259098064388186  1.0000
  H   H33       1.0  0.7442054011941557  0.05097958908900355  0.6730607847354021  1.0000
  H   H34       1.0  0.25579459923992404  0.9490204117232581  0.3269392150830102  1.0000
  H   H35       1.0  0.8047036512531576  0.8957633611136336  0.7585655752952551  1.0000
  H   H36       1.0  0.1952963484167344  0.10423663865351628  0.24143442449971825  1.0000
  H   H37       1.0  0.6654699384380682  0.9043553747392803  0.6634334924500795  1.0000
  H   H38       1.0  0.3345300612318237  0.09564462502786972  0.33656650734489385  1.0000
  C   C1        1.0  0.854683990007415  0.17265839509850225  0.02998605441094793  1.0000
  C   C2        1.0  0.14531601068072142  0.8273416046644478  0.970013945393509  1.0000
  C   C3        1.0  0.8209855548231213  0.09392724502412424  0.14216047499399967  1.0000
  C   C4        1.0  0.17901444484677065  0.9060727547430256  0.8578395248009737  1.0000
  C   C5        1.0  0.6905781608359786  0.05573756348904466  0.16501096951328037  1.0000
  C   C6        1.0  0.30942183937848616  0.9442624373777588  0.8349890313113367  1.0000
  C   C7        1.0  0.5960482637806024  0.09340924407150954  0.07746477595011728  1.0000
  C   C8        1.0  0.40395173588928973  0.9065907556956404  0.9225352238448561  1.0000
  C   C9        1.0  0.6311863952474599  0.1672541413118008  0.9649552988441312  1.0000
  C   C10       1.0  0.3688136044224323  0.8327458584553491  0.03504470095084222  1.0000
  C   C11       1.0  0.7601059469452256  0.20712013545393207  0.9411694175969672  1.0000
  C   C12       1.0  0.23989405272466646  0.7928798643132179  0.05883058219800626  1.0000
  C   C13       1.0  0.03897564151784903  0.29864247652986786  0.9391488737541432  1.0000
  C   C14       1.0  0.961024358152043  0.7013575232372822  0.060851126040830296  1.0000
  C   C15       1.0  0.18567008483000344  0.3111738352514332  0.9559479721144297  1.0000
  C   C16       1.0  0.8143299148398887  0.6888261645157168  0.044052027680543705  1.0000
  C   C17       1.0  0.10347212774572918  0.4630126212593628  0.8025866799601766  1.0000
  C   C18       1.0  0.8965278729424071  0.5369873785035872  0.19741331984428034  1.0000
  C   C19       1.0  0.9925471991726017  0.3909955115878831  0.8472823684590367  1.0000
  C   C20       1.0  0.007452800277675205  0.6090044882338086  0.15271763234214145  1.0000
  C   C21       1.0  0.35001891693094744  0.4551258487255965  0.8455826371653797  1.0000
  C   C22       1.0  0.6499810827389445  0.5448741510415535  0.15441736262959352  1.0000
  C   C23       1.0  0.4548699245309994  0.389666933966214  0.7181991219878453  1.0000
  C   C24       1.0  0.5451300759375216  0.6103330658512778  0.2818008788228165  1.0000
  C   C25       1.0  0.5782669912715018  0.4375739494576906  0.6746403388521781  1.0000
  C   C26       1.0  0.4217330083983901  0.5624260503094594  0.32535966094279534  1.0000
  C   C27       1.0  0.6749173711236985  0.3847267903519415  0.5551650324561959  1.0000
  C   C28       1.0  0.3250826293103814  0.6152732104603202  0.44483496736221645  1.0000
  C   C29       1.0  0.650073012186477  0.2788152820660693  0.4768136000770513  1.0000
  C   C30       1.0  0.34992698722935844  0.7211847187503924  0.5231863997318776  1.0000
  C   C31       1.0  0.5297111383405818  0.22702042639697664  0.5191687452611371  1.0000
  C   C32       1.0  0.4702888613293102  0.7729795733701734  0.48083125453383624  1.0000
  C   C33       1.0  0.433000277145786  0.2824349486704172  0.6382779710538685  1.0000
  C   C34       1.0  0.5669997225241059  0.7175650510967327  0.3617220287411049  1.0000
  C   C35       1.0  0.9036133552620735  0.6863803059610798  0.5311134324598361  1.0000
  C   C36       1.0  0.09638664542606283  0.31361969380187016  0.4688865673446209  1.0000
  C   C37       1.0  0.7637338596494642  0.9363703908644467  0.6698585609370667  1.0000
  C   C38       1.0  0.23626614078461564  0.06362960994781504  0.33014143888134573  1.0000
  N   N1        1.0  0.9853308649016308  0.20795589583265545  0.016495275557647765  1.0000
  N   N2        1.0  0.014669134768261071  0.7920441039344945  0.9835047242373257  1.0000
  N   N3        1.0  0.22015352859179005  0.4076309899664237  0.8682339636947632  1.0000
  N   N4        1.0  0.7798464720963462  0.5923690097965264  0.13176603610969362  1.0000
  O   O1        1.0  0.9190453881466983  0.061089839777643616  0.22162093405779398  1.0000
  O   O2        1.0  0.08095461104952208  0.9389101610933599  0.7783790667573397  1.0000
  O   O3        1.0  0.2558040114301436  0.24805376674100554  0.03481806009546283  1.0000
  O   O4        1.0  0.7441959890383776  0.7519462330764863  0.9651819407151988  1.0000
  O   O5        1.0  0.10794566221052115  0.5574617710117531  0.724424019598201  1.0000
  O   O6        1.0  0.8920543372053146  0.4425382298047086  0.2755759802107278  1.0000
  O   O7        1.0  0.8203732348658831  0.9141348958545822  0.403563775552696  1.0000
  O   O8        1.0  0.17962676480400894  0.0858651039125678  0.5964362242422774  1.0000
  S   S1        1.0  0.8962058395242345  0.8691386060411311  0.5202955178294161  1.0000
  S   S2        1.0  0.1037941599260424  0.1308613937805604  0.4797044829717621  1.0000
  Br  Br1       1.0  0.6160049298408431  0.5804420936885658  0.7819529860041058  1.0000
  Br  Br2       1.0  0.38399507084729306  0.4195579060743843  0.21804701380035113  1.0000
