data_image0
_chemical_formula_structural       H40C40N8O12F8
_chemical_formula_sum              "H40 C40 N8 O12 F8"
_cell_length_a       7.5565149734120745
_cell_length_b       11.161034574017958
_cell_length_c       13.053240818482358
_cell_angle_alpha    86.01285201771432
_cell_angle_beta     82.56131469725088
_cell_angle_gamma    70.49054528350578

_space_group_name_H-M_alt    "P 1"
_space_group_IT_number       1

loop_
  _space_group_symop_operation_xyz
  'x, y, z'

loop_
  _atom_site_type_symbol
  _atom_site_label
  _atom_site_symmetry_multiplicity
  _atom_site_fract_x
  _atom_site_fract_y
  _atom_site_fract_z
  _atom_site_occupancy
  H   H1        1.0  0.7771211504834111  0.4602070655161455  0.9694450078543191  1.0000
  H   H2        1.0  0.22287884905003474  0.5397929339940257  0.030554992365073134  1.0000
  H   H3        1.0  0.5380589739469859  0.6397695273191893  0.26655515532127594  1.0000
  H   H4        1.0  0.46194102645592394  0.3602304731423834  0.7334448447710109  1.0000
  H   H5        1.0  0.5805798373983926  0.36603039009517374  0.29294128173420775  1.0000
  H   H6        1.0  0.4194201630045174  0.633969610366399  0.7070587183580792  1.0000
  H   H7        1.0  0.6667642327159218  0.4851316823552615  0.33027372259037246  1.0000
  H   H8        1.0  0.333235768151864  0.5148683171553871  0.6697262775247611  1.0000
  H   H9        1.0  0.9391825576080313  0.3253674953834047  0.048732189186834786  1.0000
  H   H10       1.0  0.060817442794878655  0.6746325050781681  0.951267810905452  1.0000
  H   H11       1.0  0.7632369403484743  0.2590915337223451  0.10318831997986623  1.0000
  H   H12       1.0  0.23676306004777564  0.7409084667377944  0.8968116793469242  1.0000
  H   H13       1.0  0.06768759028354361  0.11696903998264113  0.14285834177584025  1.0000
  H   H14       1.0  0.9323124101193663  0.8830309604789316  0.8571416583164465  1.0000
  H   H15       1.0  0.1308419516951829  0.24265800046808186  0.18866459909627525  1.0000
  H   H16       1.0  0.869158047838263  0.7573419990420893  0.811335401123117  1.0000
  H   H17       1.0  0.979331250589191  0.33682376620658816  0.34363323997322703  1.0000
  H   H18       1.0  0.020668750278594526  0.6631762333040605  0.6563667601419065  1.0000
  H   H19       1.0  0.8077576096147429  0.27689540236723587  0.41700455385639246  1.0000
  H   H20       1.0  0.19224239078816696  0.7231045980943369  0.5829954462358943  1.0000
  H   H21       1.0  0.01014152497430975  0.6177864542819425  0.4015086972529839  1.0000
  H   H22       1.0  0.9898584740942603  0.38221354617915293  0.5984913029435617  1.0000
  H   H23       1.0  0.1711403353647223  0.6955325147378971  0.34760237236817754  1.0000
  H   H24       1.0  0.8288596655030632  0.3044674847727515  0.6523976277469561  1.0000
  H   H25       1.0  0.8625040495854394  0.0372498997491442  0.38834782931117123  1.0000
  H   H26       1.0  0.13749595081747054  0.9627501007124284  0.6116521707811157  1.0000
  H   H27       1.0  0.04069366081540494  0.9123929928381748  0.2502112456597548  1.0000
  H   H28       1.0  0.9593063382465052  0.08760700762148742  0.7497887537712944  1.0000
  H   H29       1.0  0.7918043257834729  0.9679636512499886  0.24270173008670612  1.0000
  H   H30       1.0  0.20819567327843733  0.032036349209673604  0.7572982693443431  1.0000
  H   H31       1.0  0.18675587100174204  0.5261416354554737  0.2352791271171772  1.0000
  H   H32       1.0  0.8132441294011679  0.47385836500609896  0.7647208729751096  1.0000
  H   H33       1.0  0.9362617675733524  0.5858696500491298  0.23012684848979797  1.0000
  H   H34       1.0  0.0637382314885576  0.41413035041053226  0.7698731509412511  1.0000
  H   H35       1.0  0.8115166909774736  0.7913982519214485  0.13855554896374433  1.0000
  H   H36       1.0  0.1884833080910963  0.20860174853964672  0.8614444512328011  1.0000
  H   H37       1.0  0.9806685846282686  0.8643470057381568  0.08156251071617583  1.0000
  H   H38       1.0  0.019331416232857095  0.13565299377105872  0.9184374886334614  1.0000
  H   H39       1.0  0.5903223305587434  0.019535609206525473  0.6981733514770935  1.0000
  H   H40       1.0  0.4096776689747022  0.9804643903036461  0.3018266487422989  1.0000
  C   C1        1.0  0.4988136564662411  0.765021535224132  0.022481871720164668  1.0000
  C   C2        1.0  0.5011863439366688  0.2349784652374407  0.9775181283721222  1.0000
  C   C3        1.0  0.6779079422950596  0.5299801040850901  0.1277166268521151  1.0000
  C   C4        1.0  0.32209205810785035  0.4700198963764827  0.8722833732401718  1.0000
  C   C5        1.0  0.4736675619842135  0.7498413676621574  0.13085560113811778  1.0000
  C   C6        1.0  0.5263324375492323  0.25015863184801396  0.8691443990812746  1.0000
  C   C7        1.0  0.7010581999110298  0.5410609443464468  0.01796276053503738  1.0000
  C   C8        1.0  0.2989417996224159  0.45893905516372446  0.982037239684355  1.0000
  C   C9        1.0  0.6153148623128105  0.6554287546053944  0.9695320842427612  1.0000
  C   C10       1.0  0.38468513855497505  0.3445712449052543  0.030467915872372527  1.0000
  C   C11       1.0  0.5601600547317827  0.6386254534408458  0.1829107998366189  1.0000
  C   C12       1.0  0.43983994567112716  0.36137454702072697  0.8170892002556679  1.0000
  C   C13       1.0  0.7051156627923967  0.39755559515655653  0.28747674559919606  1.0000
  C   C14       1.0  0.2948843380753889  0.6024444043540922  0.7125232545159375  1.0000
  C   C15       1.0  0.8659620648989286  0.30268825675348326  0.12166603890496892  1.0000
  C   C16       1.0  0.13403793596885688  0.6973117427571655  0.8783339612101647  1.0000
  C   C17       1.0  0.012509342120950846  0.20754848504679735  0.1827323215047379  1.0000
  C   C18       1.0  0.987490658281959  0.7924515154147753  0.8172676785875489  1.0000
  C   C19       1.0  0.8625790002962916  0.2991973936935426  0.3387827941527998  1.0000
  C   C20       1.0  0.13742099923049414  0.7008026058151956  0.6612172053010961  1.0000
  C   C21       1.0  0.8069233767618624  0.859678146476106  0.4291173467489448  1.0000
  C   C22       1.0  0.19307662364104752  0.14032185398546673  0.5708826533433421  1.0000
  C   C23       1.0  0.038165863908494385  0.6794200683167552  0.33714053648289083  1.0000
  C   C24       1.0  0.9618341364877555  0.3205799321433842  0.6628594628438996  1.0000
  C   C25       1.0  0.730817345587018  0.7944234756839319  0.5117349832238959  1.0000
  C   C26       1.0  0.26918265394642754  0.20557652382623934  0.4882650169954965  1.0000
  C   C27       1.0  0.801362678884793  0.983908895063598  0.44709680099873783  1.0000
  C   C28       1.0  0.19863732018377706  0.016091105397497297  0.5529031991978076  1.0000
  C   C29       1.0  0.6555135549712585  0.8536066875333949  0.6064593298277042  1.0000
  C   C30       1.0  0.3444864440973114  0.1463933129277005  0.3935406703688413  1.0000
  C   C31       1.0  0.91666908213695  0.8824701914282861  0.2461933018644124  1.0000
  C   C32       1.0  0.08333091739649583  0.11752980808188518  0.7538066983549799  1.0000
  C   C33       1.0  0.062494219538536996  0.612163841909475  0.23696078686700126  1.0000
  C   C34       1.0  0.9375057808643728  0.3878361585520978  0.7630392132252856  1.0000
  C   C35       1.0  0.9436883217628081  0.8088870408854131  0.1482585138313502  1.0000
  C   C36       1.0  0.0563116786401017  0.19111295957615965  0.8517414862609367  1.0000
  C   C37       1.0  0.6510324363066927  0.9750574373911769  0.6246292492437409  1.0000
  C   C38       1.0  0.348967564096217  0.024942563070395867  0.375370750848546  1.0000
  C   C39       1.0  0.7267781327899997  0.035890898728799484  0.5427194261769324  1.0000
  C   C40       1.0  0.2732218667434459  0.9641091007813719  0.45728057404246  1.0000
  N   N1        1.0  0.7664955301425384  0.41911225723054524  0.17859681086444232  1.0000
  N   N2        1.0  0.23350447072524722  0.5808877422801035  0.8214031892506913  1.0000
  N   N3        1.0  0.40774827467241087  0.8825326271230642  0.970113103420704  1.0000
  N   N4        1.0  0.592251725730499  0.1174673733385085  0.02988689667158279  1.0000
  N   N5        1.0  0.886302400345916  0.8027120317519966  0.33606600018071636  1.0000
  N   N6        1.0  0.11369760052186964  0.19728796775865215  0.6639339999344174  1.0000
  N   N7        1.0  0.7110708105043989  0.6716701437605727  0.49891533409987865  1.0000
  N   N8        1.0  0.28892918902904685  0.32832985574959866  0.5010846661195136  1.0000
  O   O1        1.0  0.494679107631324  0.9141139770966936  0.8906783554091169  1.0000
  O   O2        1.0  0.5053208927649261  0.08588602336344583  0.10932164391767356  1.0000
  O   O3        1.0  0.24461930959367473  0.9469596722766366  0.006259443278091816  1.0000
  O   O4        1.0  0.7553806894748953  0.053040328184458564  0.9937405569184538  1.0000
  O   O5        1.0  0.9333043222022495  0.18284565653988338  0.2843652005387244  1.0000
  O   O6        1.0  0.06669567686632061  0.8171543439212119  0.7156347996578211  1.0000
  O   O7        1.0  0.0952670917292001  0.6899003861488754  0.14940668919781594  1.0000
  O   O8        1.0  0.9047329086737099  0.3100996143126973  0.8505933108944709  1.0000
  O   O9        1.0  0.6463938032084108  0.6557737632872868  0.4200052047252374  1.0000
  O   O10       1.0  0.35360619585349956  0.3442262371723753  0.5799947947058117  1.0000
  O   O11       1.0  0.7570653818582496  0.5888572268123062  0.5685868416239186  1.0000
  O   O12       1.0  0.24293461721032036  0.41114277364878915  0.4314131585726269  1.0000
  F   F1        1.0  0.36883916362598756  0.8515580966520968  0.18766243449508083  1.0000
  F   F2        1.0  0.6311608372417981  0.14844190285855202  0.8123375656200527  1.0000
  F   F3        1.0  0.6320754163712652  0.659416788108995  0.8645517750652704  1.0000
  F   F4        1.0  0.36792458403164463  0.3405832123525777  0.1354482250270165  1.0000
  F   F5        1.0  0.5708151734319988  0.7940395107551131  0.680872468653968  1.0000
  F   F6        1.0  0.42918482563657123  0.2059604897059821  0.3191275315425776  1.0000
  F   F7        1.0  0.7320177060392821  0.15393440861222019  0.5590165690797303  1.0000
  F   F8        1.0  0.26798229302928794  0.8460655918488751  0.44098343111681526  1.0000
