data_image0
_chemical_formula_structural       H52C44N10O12F6
_chemical_formula_sum              "H52 C44 N10 O12 F6"
_cell_length_a       9.906042741964887
_cell_length_b       9.949729541145151
_cell_length_c       12.874942956597392
_cell_angle_alpha    78.06942705148076
_cell_angle_beta     82.38340844073682
_cell_angle_gamma    63.13865805055464

_space_group_name_H-M_alt    "P 1"
_space_group_IT_number       1

loop_
  _space_group_symop_operation_xyz
  'x, y, z'

loop_
  _atom_site_type_symbol
  _atom_site_label
  _atom_site_symmetry_multiplicity
  _atom_site_fract_x
  _atom_site_fract_y
  _atom_site_fract_z
  _atom_site_occupancy
  H   H1        1.0  0.582236625027858  0.4977355075673213  0.332929688879666  1.0000
  H   H2        1.0  0.41776337588879275  0.5022644916384433  0.6670703108078083  1.0000
  H   H3        1.0  0.5469598492944904  0.2794729493277661  0.08471900361496927  1.0000
  H   H4        1.0  0.45304015010041604  0.7205270509986995  0.9152809968269633  1.0000
  H   H5        1.0  0.37415562888493314  0.610222712440988  0.33506065924701606  1.0000
  H   H6        1.0  0.6258443715270731  0.3897772879071472  0.6649393403173439  1.0000
  H   H7        1.0  0.29923721241088075  0.4750296300845176  0.37403885206071985  1.0000
  H   H8        1.0  0.7007627869870366  0.5249703702536844  0.6259611476023937  1.0000
  H   H9        1.0  0.09520424385559252  0.7310128227222723  0.35687572988024674  1.0000
  H   H10       1.0  0.9047957560439585  0.2689871764618229  0.6431242706848003  1.0000
  H   H11       1.0  0.16037809628676086  0.785552775103166  0.2266277631793409  1.0000
  H   H12       1.0  0.8396219031111565  0.2144472252350361  0.7733722364837727  1.0000
  H   H13       1.0  0.1405472362648364  0.6777808417518961  0.08643639564544545  1.0000
  H   H14       1.0  0.85945276313007  0.3222191585745696  0.9135636047964871  1.0000
  H   H15       1.0  0.05945614765826695  0.5437528761706664  0.1147203312297156  1.0000
  H   H16       1.0  0.9405438527537394  0.4562471241774687  0.8852796683346443  1.0000
  H   H17       1.0  0.27692364823430765  0.34815804381301396  0.20699915718013137  1.0000
  H   H18       1.0  0.7230763526793325  0.6518419553810141  0.7930008432861619  1.0000
  H   H19       1.0  0.33958721394162766  0.42234855365095425  0.08289358911312612  1.0000
  H   H20       1.0  0.6604127864673675  0.5776514466854445  0.9171064112300529  1.0000
  H   H21       1.0  0.04594060682659477  0.15134570541267628  0.3472408301602512  1.0000
  H   H22       1.0  0.9540593930759672  0.8486542937831553  0.6527591696259767  1.0000
  H   H23       1.0  0.009040764704350043  0.24768270910296228  0.45541540470843317  1.0000
  H   H24       1.0  0.990959234690556  0.7523172912235034  0.5445845957334995  1.0000
  H   H25       1.0  0.1109407597580612  0.2945786405307701  0.3396855194085601  1.0000
  H   H26       1.0  0.8890592406509341  0.7054213598056288  0.6603144809346189  1.0000
  H   H27       1.0  0.7227985362474176  0.6089952725822044  0.3350642923255272  1.0000
  H   H28       1.0  0.2772014631474887  0.3910047277442613  0.6649357081164053  1.0000
  H   H29       1.0  0.8919026481726682  0.5337425994150471  0.40415630591699075  1.0000
  H   H30       1.0  0.10809735122223832  0.46625740091141854  0.5958436945249418  1.0000
  H   H31       1.0  0.7420437939955209  0.48269893303934214  0.45801174420837254  1.0000
  H   H32       1.0  0.25795620641347444  0.5173010672970567  0.5419882561348064  1.0000
  H   H33       1.0  0.6409798197088563  0.9132144845236511  0.6801850005508042  1.0000
  H   H34       1.0  0.35902017968605004  0.08678551580281464  0.3198149998911284  1.0000
  H   H35       1.0  0.14869150603475  0.12341362378272636  0.7310476212417591  1.0000
  H   H36       1.0  0.8513084933631674  0.8765863765554757  0.26895237842135444  1.0000
  H   H37       1.0  0.6393385120918945  0.05233139230119451  0.7643799400434819  1.0000
  H   H38       1.0  0.36066148831710065  0.9476686080352043  0.2356200602996971  1.0000
  H   H39       1.0  0.5988410489529705  0.9517747270694981  0.8868117263348418  1.0000
  H   H40       1.0  0.40115895094959136  0.04822527212633347  0.11318827345138624  1.0000
  H   H41       1.0  0.6624373605788263  0.14574566969757266  0.9223571107865695  1.0000
  H   H42       1.0  0.3375626403378247  0.8542543295081919  0.07764288890090491  1.0000
  H   H43       1.0  0.5342255150919358  0.29023889377590756  0.827661467511483  1.0000
  H   H44       1.0  0.4657744853200705  0.7097611065722276  0.172338532052877  1.0000
  H   H45       1.0  0.2738516838819633  0.38586885594255577  0.8666205032953054  1.0000
  H   H46       1.0  0.726148315512943  0.6141311443839098  0.13337949714662717  1.0000
  H   H47       1.0  0.20843732936588522  0.30805840283136277  0.9908428982661258  1.0000
  H   H48       1.0  0.7915626700290213  0.6919415974951029  0.009157102175806698  1.0000
  H   H49       1.0  0.27889597802642163  0.0687053744573931  0.9342168273538503  1.0000
  H   H50       1.0  0.7211040223825735  0.9312946258790058  0.06578317298932876  1.0000
  H   H51       1.0  0.17464500104631894  0.21915953636890834  0.8325122469135442  1.0000
  H   H52       1.0  0.8253549983515984  0.7808404639692937  0.16748775274956942  1.0000
  C   C1        1.0  0.8619245005306438  0.2513428402123011  0.18657800137332384  1.0000
  C   C2        1.0  0.13807549886426246  0.7486571601141646  0.8134219990686088  1.0000
  C   C3        1.0  0.7920505615968871  0.3544060563601807  0.26203347340589506  1.0000
  C   C4        1.0  0.20794943931675264  0.6455939428338475  0.7379665270603982  1.0000
  C   C5        1.0  0.6328356647781285  0.4288686711790162  0.27065488500372425  1.0000
  C   C6        1.0  0.3671643351244334  0.5711313280168153  0.7293451147825037  1.0000
  C   C7        1.0  0.539505477554464  0.409381013669429  0.20718526347942617  1.0000
  C   C8        1.0  0.4604945223480982  0.5906189855264025  0.7928147363068019  1.0000
  C   C9        1.0  0.6102374770749602  0.30422250165858084  0.1347513296415262  1.0000
  C   C10       1.0  0.3897625223229571  0.6957774986796212  0.8652486700215875  1.0000
  C   C11       1.0  0.7651457134675727  0.22754755199479404  0.12875726371916027  1.0000
  C   C12       1.0  0.2348542864319781  0.7724524471893011  0.8712427368458867  1.0000
  C   C13       1.0  0.30868138557540553  0.5611480433995649  0.30795458798024444  1.0000
  C   C14       1.0  0.6913186138195007  0.43885195692690077  0.6920454124616883  1.0000
  C   C15       1.0  0.15256455340618594  0.6892110292295949  0.2832196701657841  1.0000
  C   C16       1.0  0.847435446496376  0.3107889699662366  0.7167803296204439  1.0000
  C   C17       1.0  0.13212119748503517  0.5828652640010161  0.14442839174756494  1.0000
  C   C18       1.0  0.8678788034316157  0.4171347352047484  0.8555716079399094  1.0000
  C   C19       1.0  0.2883948683031363  0.4496021309318095  0.16121811186200222  1.0000
  C   C20       1.0  0.7116051310917698  0.5503978693946562  0.8387818885799303  1.0000
  C   C21       1.0  0.0183464183271165  0.26216933743378895  0.36811040600302863  1.0000
  C   C22       1.0  0.9816535820848898  0.7378306629143464  0.6318895935613315  1.0000
  C   C23       1.0  0.8032488687615845  0.507301942087888  0.384293069960553  1.0000
  C   C24       1.0  0.19675113113796616  0.49269805709620695  0.615706930604494  1.0000
  C   C25       1.0  0.37261899499340617  0.8823269256261782  0.5595063974255926  1.0000
  C   C26       1.0  0.6273810054186  0.11767307472195694  0.44049360213876737  1.0000
  C   C27       1.0  0.5134066420360417  0.8620058355511532  0.5895327130363613  1.0000
  C   C28       1.0  0.4865933583729536  0.1379941647852456  0.4104672873068176  1.0000
  C   C29       1.0  0.5275509157420953  0.9335536550761815  0.6650317167062616  1.0000
  C   C30       1.0  0.4724490841574553  0.06644634410791371  0.3349682838587853  1.0000
  C   C31       1.0  0.3968511606849095  0.031166047818991047  0.7197083804112542  1.0000
  C   C32       1.0  0.6031488397270968  0.9688339525291442  0.2802916191531058  1.0000
  C   C33       1.0  0.25363532989230614  0.05284526208129853  0.6916440881965313  1.0000
  C   C34       1.0  0.7463646710213336  0.9471547371127298  0.30835591226976194  1.0000
  C   C35       1.0  0.24454645705150968  0.9821138563464095  0.6138247706808744  1.0000
  C   C36       1.0  0.7554535423433967  0.01788614398005617  0.3861752297610582  1.0000
  C   C37       1.0  0.5583613615125725  0.06213502475156725  0.8325808517234081  1.0000
  C   C38       1.0  0.44163863788534485  0.937864975586635  0.16741914793970558  1.0000
  C   C39       1.0  0.5536596760603643  0.18633456481698546  0.8864385526195533  1.0000
  C   C40       1.0  0.44634032384219774  0.813665434378846  0.1135614471666747  1.0000
  C   C41       1.0  0.29352555540373015  0.28111127089957333  0.9248529419029224  1.0000
  C   C42       1.0  0.7064744450052651  0.7188887294368255  0.07514705844025646  1.0000
  C   C43       1.0  0.28186977494478466  0.16302712287408536  0.872935736281361  1.0000
  C   C44       1.0  0.7181302254642105  0.8369728774623134  0.1270642640618179  1.0000
  N   N1        1.0  0.019205637946403148  0.19046784347504528  0.1565411460241088  1.0000
  N   N2        1.0  0.9807943624656031  0.80953215687309  0.8434588535402512  1.0000
  N   N3        1.0  0.8747799291003718  0.3790947979807988  0.32687023441156726  1.0000
  N   N4        1.0  0.12522007181627917  0.6209052012249657  0.6731297652759072  1.0000
  N   N5        1.0  0.3843179782280152  0.48756201131397253  0.2153865150389682  1.0000
  N   N6        1.0  0.6156820211668911  0.512437989012493  0.7846134854029645  1.0000
  N   N7        1.0  0.36070846995658745  0.8097003791815336  0.4792757671054  1.0000
  N   N8        1.0  0.6392915309570525  0.19029962001249445  0.5207242333608935  1.0000
  N   N9        1.0  0.4088201357365892  0.10114376632444579  0.7961653397074809  1.0000
  N   N10       1.0  0.5911798636583172  0.8988562340020197  0.2038346607344517  1.0000
  O   O1        1.0  0.08437082259538597  0.05933459632922386  0.1322263172742504  1.0000
  O   O2        1.0  0.9156291767995204  0.9406654039972419  0.8677736831676822  1.0000
  O   O3        1.0  0.08700920762017561  0.2724254352177614  0.1526277637090702  1.0000
  O   O4        1.0  0.912990793296475  0.7275745639880034  0.8473722359784042  1.0000
  O   O5        1.0  0.06035068125809176  0.6374980446427075  0.24135594120074574  1.0000
  O   O6        1.0  0.9396493191539145  0.36250195570542776  0.7586440583636143  1.0000
  O   O7        1.0  0.24737296883201856  0.8775401975487125  0.4228867178111812  1.0000
  O   O8        1.0  0.7526270315799876  0.12245980279942267  0.5771132817531788  1.0000
  O   O9        1.0  0.4648337393406283  0.6810013092779608  0.4680922042172491  1.0000
  O   O10       1.0  0.5351662600542779  0.31899869104850503  0.5319077962246834  1.0000
  O   O11       1.0  0.438035928919902  0.22425140511313157  0.9695655450866105  1.0000
  O   O12       1.0  0.5619640704780154  0.7757485952250706  0.03043445457650318  1.0000
  F   F1        1.0  0.8273786263349882  0.13009495482086061  0.0569864310875511  1.0000
  F   F2        1.0  0.17262137407400688  0.8699050455155383  0.9430135692556278  1.0000
  F   F3        1.0  0.6425130888762971  0.7745110842937959  0.5381192785304638  1.0000
  F   F4        1.0  0.35748691153269796  0.22548891604260288  0.46188072181271517  1.0000
  F   F5        1.0  0.1053094330889507  0.0035897773010033405  0.5927074570418245  1.0000
  F   F6        1.0  0.8946905663089668  0.9964102230371987  0.40729254262128906  1.0000
