data_image0
_chemical_formula_structural       H72C76N16O4
_chemical_formula_sum              "H72 C76 N16 O4"
_cell_length_a       7.789401393461593
_cell_length_b       12.151809354155477
_cell_length_c       17.269442198951804
_cell_angle_alpha    90.0
_cell_angle_beta     97.02370311186279
_cell_angle_gamma    90.0

_space_group_name_H-M_alt    "P 1"
_space_group_IT_number       1

loop_
  _space_group_symop_operation_xyz
  'x, y, z'

loop_
  _atom_site_type_symbol
  _atom_site_label
  _atom_site_symmetry_multiplicity
  _atom_site_fract_x
  _atom_site_fract_y
  _atom_site_fract_z
  _atom_site_occupancy
  H   H1        1.0  0.2470869755645372  0.9074766759922055  0.04149402329555608  1.0000
  H   H2        1.0  0.25291302410414845  0.4074766757517258  0.458505976492603  1.0000
  H   H3        1.0  0.7529130237681556  0.09252332448875374  0.9585059768595577  1.0000
  H   H4        1.0  0.747086975233223  0.5925233239063106  0.5414940230837152  1.0000
  H   H5        1.0  0.009295678635084657  0.06529858121322923  0.8735881381213397  1.0000
  H   H6        1.0  0.4907043215195622  0.5652985814537088  0.6264118614317448  1.0000
  H   H7        1.0  0.9907043219957807  0.93470141926773  0.1264118615284149  1.0000
  H   H8        1.0  0.509295677817809  0.43470141902725035  0.37358813814457337  1.0000
  H   H9        1.0  0.9877253044867794  0.9388343313745864  0.8209803173828982  1.0000
  H   H10       1.0  0.5122746945145988  0.43883433113410675  0.6790196825603747  1.0000
  H   H11       1.0  0.012274694845913228  0.06116566828345012  0.17901968277221558  1.0000
  H   H12       1.0  0.48772530482277243  0.5611656685239297  0.3209803170159435  1.0000
  H   H13       1.0  0.18836261670169735  0.009362861668093308  0.8327901499415326  1.0000
  H   H14       1.0  0.31163738345294956  0.5093628619085729  0.6672098496115519  1.0000
  H   H15       1.0  0.811637382635674  0.9906371379899431  0.16720984963478566  1.0000
  H   H16       1.0  0.6883626171779159  0.4906371385723863  0.33279015003820267  1.0000
  H   H17       1.0  0.9871427042732234  0.783250442185815  0.889049906371284  1.0000
  H   H18       1.0  0.5128572960216492  0.28325044194533544  0.6109500936454254  1.0000
  H   H19       1.0  0.012857296357642132  0.2167495582951441  0.11095009327847058  1.0000
  H   H20       1.0  0.48714270331104353  0.716749557712701  0.3890499065096885  1.0000
  H   H21       1.0  0.1415177672196116  0.5716924013150639  0.015236103622463222  1.0000
  H   H22       1.0  0.3584822337425682  0.07169240107458434  0.4847638962391324  1.0000
  H   H23       1.0  0.8584822334112538  0.4283075983429725  0.9847638960272914  1.0000
  H   H24       1.0  0.6415177668836187  0.9283075985834521  0.5152361039894179  1.0000
  H   H25       1.0  0.9749691653616859  0.6118760468750577  0.940296220252793  1.0000
  H   H26       1.0  0.5250308349331867  0.11187604663457808  0.5597037797639164  1.0000
  H   H27       1.0  0.025030835264500978  0.38812395278297873  0.059703779975757314  1.0000
  H   H28       1.0  0.4749691644041847  0.8881239530234584  0.4402962198124018  1.0000
  H   H29       1.0  0.9417858973337191  0.6200671875602891  0.04071491886123563  1.0000
  H   H30       1.0  0.5582141024798707  0.12006718814273232  0.45928508081175273  1.0000
  H   H31       1.0  0.05821410329246774  0.37993281209774726  0.9592850813673147  1.0000
  H   H32       1.0  0.44178589685750064  0.8799328123382268  0.5407149187645655  1.0000
  H   H33       1.0  0.24511652300324654  0.1459286932767421  0.8976504617277931  1.0000
  H   H34       1.0  0.2548834758532277  0.6459286935172217  0.6023495383306506  1.0000
  H   H35       1.0  0.7548834763294462  0.8540713063812944  0.1023495384273208  1.0000
  H   H36       1.0  0.7451165234794652  0.3540713061408148  0.3976504618244632  1.0000
  H   H37       1.0  0.3831447895604828  0.31909471314031185  0.9356656782256206  1.0000
  H   H38       1.0  0.11685521058948557  0.8190947133807914  0.5643343219062593  1.0000
  H   H39       1.0  0.61685520977221  0.6809052865177245  0.06433432192949304  1.0000
  H   H40       1.0  0.8831447900367013  0.1809052871001677  0.4356656783222909  1.0000
  H   H41       1.0  0.5385815835329746  0.19395844530707768  0.167904649782018  1.0000
  H   H42       1.0  0.9614184162759367  0.6939584455475573  0.332095350469766  1.0000
  H   H43       1.0  0.46141841709321224  0.8060415543509587  0.8320953504465324  1.0000
  H   H44       1.0  0.038581583056756096  0.3060415541104792  0.6679046496853479  1.0000
  H   H45       1.0  0.39285494545614247  0.01779597866436649  0.130692642107817  1.0000
  H   H46       1.0  0.10714505421254317  0.5177959789048461  0.3693073576803421  1.0000
  H   H47       1.0  0.6071450538765503  0.98220402099367  0.8693073580472969  1.0000
  H   H48       1.0  0.8928549464183223  0.48220402075319035  0.6306926419694125  1.0000
  H   H49       1.0  0.46205626554420476  0.5669246948516484  0.1500786018318043  1.0000
  H   H50       1.0  0.0379437341244809  0.06692469543409155  0.3499213979563548  1.0000
  H   H51       1.0  0.5379437350819821  0.433075304806388  0.849921398396746  1.0000
  H   H52       1.0  0.9620562652128904  0.9330753050468675  0.6500786016199633  1.0000
  H   H53       1.0  0.3083553845013089  0.670274208771609  0.13535317865855478  1.0000
  H   H54       1.0  0.19164461516737677  0.17027420935405224  0.3646468211296043  1.0000
  H   H55       1.0  0.691644616124878  0.32972579088642734  0.8646468215699955  1.0000
  H   H56       1.0  0.8083553841699945  0.8297257911269069  0.6353531784467138  1.0000
  H   H57       1.0  0.40378806641201476  0.3920869272336545  0.21104314873734875  1.0000
  H   H58       1.0  0.0962119332566709  0.8920869266512114  0.28895685105081037  1.0000
  H   H59       1.0  0.596211932920678  0.6079130732473047  0.7889568514177651  1.0000
  H   H60       1.0  0.9037880660807004  0.1079130730068251  0.7110431485255079  1.0000
  H   H61       1.0  0.17759920098861542  0.26764293161724234  0.24856991129562664  1.0000
  H   H62       1.0  0.3224007986800702  0.767642931857722  0.2514300884925324  1.0000
  H   H63       1.0  0.8224007983487559  0.7323570688637168  0.7514300882806915  1.0000
  H   H64       1.0  0.6775992006526225  0.2323570686232372  0.7485699116625814  1.0000
  H   H65       1.0  0.8066059330514366  0.533931459991286  0.218188046491617  1.0000
  H   H66       1.0  0.6933940667574748  0.033931460573729186  0.281811953760167  1.0000
  H   H67       1.0  0.19339406757475042  0.4660685396667504  0.7818119537369332  1.0000
  H   H68       1.0  0.30660593257521795  0.96606853990723  0.7181880463949469  1.0000
  H   H69       1.0  0.03056836405618691  0.6575584612235158  0.18216845004548515  1.0000
  H   H70       1.0  0.4694316369059929  0.15755846180595892  0.31783154981611045  1.0000
  H   H71       1.0  0.9694316365746786  0.3424415384345207  0.8178315496042695  1.0000
  H   H72       1.0  0.530568363720194  0.8424415386750003  0.6821684504124399  1.0000
  C   C1        1.0  0.07486438395645878  0.9881481654329752  0.8616959035322946  1.0000
  C   C2        1.0  0.4251356161935096  0.48814816519249554  0.6383040965995854  1.0000
  C   C3        1.0  0.9251356166744066  0.011851834225061307  0.13830409611745995  1.0000
  C   C4        1.0  0.5748643831391832  0.5118518344655408  0.3616959035555284  1.0000
  C   C5        1.0  0.12624009267468053  0.9237718625137323  0.934396509313759  1.0000
  C   C6        1.0  0.3737599074752878  0.42377186227325286  0.5656034908181213  1.0000
  C   C7        1.0  0.8737599079515064  0.07622813796722673  0.06560349091479149  1.0000
  C   C8        1.0  0.6262400931508991  0.5762281373847836  0.4343965094104289  1.0000
  C   C9        1.0  0.0685414769799498  0.816241572009861  0.9392558947413046  1.0000
  C   C10       1.0  0.43145852317001854  0.31624157176938145  0.5607441053905756  1.0000
  C   C11       1.0  0.931458522352743  0.1837584284710981  0.06074410541380939  1.0000
  C   C12       1.0  0.5685414774561682  0.6837584278886549  0.4392558948379746  1.0000
  C   C13       1.0  0.1074153258441017  0.745812368007633  0.004980544615099739  1.0000
  C   C14       1.0  0.39258467382458395  0.24581236776715334  0.4950194551730594  1.0000
  C   C15       1.0  0.8925846734885912  0.25418763247332626  0.995019455540014  1.0000
  C   C16       1.0  0.6074153255127873  0.7541876318908831  0.5049805444032589  1.0000
  C   C17       1.0  0.036792173691914454  0.6308461083104907  0.9991933388159848  1.0000
  C   C18       1.0  0.46320782645805386  0.13084610807001118  0.5008066613158955  1.0000
  C   C19       1.0  0.9632078256407783  0.3691538921704684  0.000806661339129171  1.0000
  C   C20       1.0  0.536792174168133  0.8691538915880254  0.4991933389126548  1.0000
  C   C21       1.0  0.30632551780942985  0.06763570724708098  0.011585372645512135  1.0000
  C   C22       1.0  0.19367448185925576  0.5676357074875605  0.488414627142647  1.0000
  C   C23       1.0  0.6936744815279414  0.9323642924109554  0.9884146269308061  1.0000
  C   C24       1.0  0.806325517473437  0.43236429217047584  0.5115853730124669  1.0000
  C   C25       1.0  0.306842413343208  0.15365584133045065  0.9569389411263515  1.0000
  C   C26       1.0  0.19315758680676043  0.6536558415709303  0.5430610590055287  1.0000
  C   C27       1.0  0.6931575859894848  0.8463441583275857  0.043061059028762394  1.0000
  C   C28       1.0  0.8068424138194265  0.3463441580871062  0.4569389412230216  1.0000
  C   C29       1.0  0.38672980921705213  0.252833480221557  0.9782607571150204  1.0000
  C   C30       1.0  0.11327019093291617  0.752833479639114  0.5217392430168598  1.0000
  C   C31       1.0  0.6132701914091347  0.7471665202594022  0.02173924311352997  1.0000
  C   C32       1.0  0.8867298096932708  0.24716652001892256  0.4782607572116904  1.0000
  C   C33       1.0  0.4695820546248863  0.2688788636140576  0.05436803933147393  1.0000
  C   C34       1.0  0.03041794503912082  0.7688788638545372  0.4456319610354808  1.0000
  C   C35       1.0  0.5304179460013005  0.7311211360439788  0.9456319608970764  1.0000
  C   C36       1.0  0.969582054293572  0.23112113580349922  0.5543680391196331  1.0000
  C   C37       1.0  0.47247692573148004  0.18252928558671833  0.1091024135651646  1.0000
  C   C38       1.0  0.027523073937205652  0.6825292850042751  0.3908975862229945  1.0000
  C   C39       1.0  0.5275230736058913  0.8174707148942408  0.8908975860111535  1.0000
  C   C40       1.0  0.9724769253954871  0.31747071465376125  0.6091024139321194  1.0000
  C   C41       1.0  0.39168285203524233  0.08378816687506871  0.08775880420797191  1.0000
  C   C42       1.0  0.1083171489269375  0.5837881662926255  0.4122411956536236  1.0000
  C   C43       1.0  0.6083171485909445  0.9162118336058905  0.9122411960205784  1.0000
  C   C44       1.0  0.891682851703928  0.41621183336541084  0.587758803996131  1.0000
  C   C45       1.0  0.5458122540727757  0.3722381225848621  0.07548216940797674  1.0000
  C   C46       1.0  0.9541877457361356  0.8722381228253416  0.4245178308438073  1.0000
  C   C47       1.0  0.45418774525991706  0.6277618770731743  0.9245178307471371  1.0000
  C   C48       1.0  0.04581225359655715  0.1277618776556175  0.5754821693113065  1.0000
  C   C49       1.0  0.23296266018568354  0.5333811707458649  0.1906158788328856  1.0000
  C   C50       1.0  0.26703734077649627  0.0333811705053853  0.30938412102871  1.0000
  C   C51       1.0  0.7670373404451819  0.4666188297350943  0.8093841208168691  1.0000
  C   C52       1.0  0.7329626598496907  0.9666188291526511  0.6906158791998404  1.0000
  C   C53       1.0  0.27266323492177114  0.4227240627539454  0.21190812860177727  1.0000
  C   C54       1.0  0.2273367660404087  0.922724062994425  0.2880918712598183  1.0000
  C   C55       1.0  0.7273367657090944  0.5772759377270138  0.7880918710479774  1.0000
  C   C56       1.0  0.7726632345857781  0.07727593748653419  0.711908128968732  1.0000
  C   C57       1.0  0.14636506827189352  0.35287011464952395  0.23321286150602588  1.0000
  C   C58       1.0  0.3536349313967921  0.8528701148900035  0.2667871382821332  1.0000
  C   C59       1.0  0.8536349323589718  0.6471298858314353  0.7667871381437288  1.0000
  C   C60       1.0  0.6463650679359007  0.14712988559095566  0.7332128618729806  1.0000
  C   C61       1.0  0.975566336980803  0.3909111994400717  0.23503439906430848  1.0000
  C   C62       1.0  0.5244336628327868  0.8909111996805512  0.2649656006086798  1.0000
  C   C63       1.0  0.02443366364538381  0.6090888002179647  0.7649656011642418  1.0000
  C   C64       1.0  0.4755663365045845  0.10908879997748516  0.7350343989676383  1.0000
  C   C65       1.0  0.9368595984556839  0.5022818678366427  0.21684123901979901  1.0000
  C   C66       1.0  0.5631404013532273  0.00228186759616318  0.283158761231985  1.0000
  C   C67       1.0  0.06314040217050293  0.49771813264431636  0.7831587612087513  1.0000
  C   C68       1.0  0.43685959797946544  0.9977181328847959  0.7168412389231289  1.0000
  C   C69       1.0  0.06318714793571294  0.5719821137272156  0.1957874458186785  1.0000
  C   C70       1.0  0.43681285302646683  0.07198211348673604  0.3042125540429171  1.0000
  C   C71       1.0  0.936812852690474  0.4280178859308208  0.8042125544098718  1.0000
  C   C72       1.0  0.5631871476043986  0.9280178861713004  0.6957874456068376  1.0000
  C   C73       1.0  0.844652099292109  0.3185978019541653  0.25382683929679184  1.0000
  C   C74       1.0  0.655347900521481  0.8185978013717222  0.24617316037619644  1.0000
  C   C75       1.0  0.15534790004526233  0.6814021985267938  0.7461731602795263  1.0000
  C   C76       1.0  0.34465210010938463  0.18140219828631426  0.7538268392735582  1.0000
  N   N1        1.0  0.22784464397806253  0.9660571095106567  0.9969288109951752  1.0000
  N   N2        1.0  0.2721553548784117  0.4660571092701772  0.5030711890632685  1.0000
  N   N3        1.0  0.7721553553546302  0.03394289097030239  0.003071189159938642  1.0000
  N   N4        1.0  0.7278446444542811  0.5339428903878592  0.4969288110918454  1.0000
  N   N5        1.0  0.6041344089365126  0.45898584625940464  0.09223761164310046  1.0000
  N   N6        1.0  0.8958655908723987  0.9589858464998842  0.4077623886086835  1.0000
  N   N7        1.0  0.39586559039618013  0.5410141533986319  0.9077623885120134  1.0000
  N   N8        1.0  0.10413440975378824  0.04101415398107498  0.5922376116198668  1.0000
  N   N9        1.0  0.3547824238619325  0.6028570311214471  0.1676002327224195  1.0000
  N   N10       1.0  0.14521757710024735  0.10285703088096754  0.33239976713917607  1.0000
  N   N11       1.0  0.645217576768933  0.39714296935951204  0.8323997669273351  1.0000
  N   N12       1.0  0.8547824235259395  0.8971429695999916  0.6676002330893742  1.0000
  N   N13       1.0  0.7347208821391616  0.2599110476432833  0.2697595272969586  1.0000
  N   N14       1.0  0.7652791176697497  0.7599110478837628  0.23024047295482533  1.0000
  N   N15       1.0  0.26527911719353114  0.7400889520147531  0.7302404728581552  1.0000
  N   N16       1.0  0.23472088295643725  0.24008895177427353  0.769759527273725  1.0000
  O   O1        1.0  0.19868139287683584  0.7766235673186198  0.06764722469698027  1.0000
  O   O2        1.0  0.3013186067871712  0.2766235670781403  0.4323527756699745  1.0000
  O   O3        1.0  0.801318606455857  0.2233764331623393  0.9323527754581336  1.0000
  O   O4        1.0  0.6986813925455215  0.7233764325798961  0.5676472244851394  1.0000
