data_image0
_chemical_formula_structural       H30B12N8
_chemical_formula_sum              "H30 B12 N8"
_cell_length_a       7.506502100634627
_cell_length_b       7.938587061500734
_cell_length_c       7.961485936125403
_cell_angle_alpha    91.55558622315729
_cell_angle_beta     117.42946703616728
_cell_angle_gamma    111.98746337924119

_space_group_name_H-M_alt    "P 1"
_space_group_IT_number       1

loop_
  _space_group_symop_operation_xyz
  'x, y, z'

loop_
  _atom_site_type_symbol
  _atom_site_label
  _atom_site_symmetry_multiplicity
  _atom_site_fract_x
  _atom_site_fract_y
  _atom_site_fract_z
  _atom_site_occupancy
  H   H1        1.0  0.19384725708874492  0.8917948352552418  0.12660953118309637  1.0000
  H   H2        1.0  0.8061527429078529  0.10820516497984028  0.8733904682887335  1.0000
  H   H3        1.0  0.4502534395069489  0.0462220460232629  0.1576349499764117  1.0000
  H   H4        1.0  0.5497465604896488  0.9537779542118191  0.8423650494954181  1.0000
  H   H5        1.0  0.218711805667184  0.015872914611783532  0.9521218891590489  1.0000
  H   H6        1.0  0.7812881943294137  0.9841270856232985  0.04787811031278081  1.0000
  H   H7        1.0  0.15211853426997318  0.7178712607707057  0.8491586160806754  1.0000
  H   H8        1.0  0.8478814652435563  0.2821287398038126  0.1508413848512912  1.0000
  H   H9        1.0  0.35727921374984156  0.7233541115700824  0.05650536331500212  1.0000
  H   H10       1.0  0.6427207870962955  0.2766458890073148  0.9434946376155188  1.0000
  H   H11       1.0  0.19267043100221073  0.1721929457843713  0.7036408473443279  1.0000
  H   H12       1.0  0.8073295693108613  0.8278070534352251  0.29635915358907294  1.0000
  H   H13       1.0  0.9637707809837498  0.9875058501140912  0.6601125946068054  1.0000
  H   H14       1.0  0.03622921932932218  0.012494149105505215  0.3398874063265955  1.0000
  H   H15       1.0  0.949691859712813  0.2846730822957681  0.6920403056517902  1.0000
  H   H16       1.0  0.050308140283784594  0.715326917939314  0.3079596938200397  1.0000
  H   H17       1.0  0.13447578942025604  0.32538361743616645  0.9258325897298783  1.0000
  H   H18       1.0  0.8655242100432766  0.6746163814411147  0.07416740974483155  1.0000
  H   H19       1.0  0.13963535587561926  0.5309927297542276  0.16728579483511757  1.0000
  H   H20       1.0  0.8603646449705177  0.46900727082316956  0.8327142060954033  1.0000
  H   H21       1.0  0.05978915133125737  0.3044074239607248  0.44779906022744026  1.0000
  H   H22       1.0  0.9402108481322753  0.6955925749165563  0.5522009392472695  1.0000
  H   H23       1.0  0.19040937308939493  0.17568793770251703  0.17878337776223815  1.0000
  H   H24       1.0  0.8095906277567421  0.8243120628748802  0.8212166231682827  1.0000
  H   H25       1.0  0.47478154510724346  0.4853026710122396  0.8515280157061381  1.0000
  H   H26       1.0  0.5252184557388935  0.5146973295651575  0.1484719852243826  1.0000
  H   H27       1.0  0.396631078365648  0.13981088281643897  0.5972450556972843  1.0000
  H   H28       1.0  0.6033689216309498  0.860189117418643  0.40275494377454546  1.0000
  H   H29       1.0  0.6864705918353962  0.2714582503338135  0.4147122437494922  1.0000
  H   H30       1.0  0.3135294076281368  0.7285417485434678  0.5852877557252177  1.0000
  B   B1        1.0  0.2900593382676889  0.520408375446776  0.30729312435697687  1.0000
  B   B2        1.0  0.7099406617289088  0.479591624788306  0.692706875114853  1.0000
  B   B3        1.0  0.2430833175072896  0.38617331276277794  0.46982324576429996  1.0000
  B   B4        1.0  0.7569166819562431  0.6138266861145033  0.5301767537104097  1.0000
  B   B5        1.0  0.3208800399365428  0.3097886691915157  0.31303283938691523  1.0000
  B   B6        1.0  0.6791199600600549  0.6902113310435662  0.6869671600849145  1.0000
  B   B7        1.0  0.4839567215148225  0.4913606560533612  0.7049548874964943  1.0000
  B   B8        1.0  0.516043277998707  0.5086393445211571  0.29504511343547235  1.0000
  B   B9        1.0  0.44063122271544963  0.2904897322714394  0.5581044098407922  1.0000
  B   B10       1.0  0.559368777281148  0.7095102679636425  0.44189558963103753  1.0000
  B   B11       1.0  0.6093804730679246  0.366226007058836  0.45025385677536506  1.0000
  B   B12       1.0  0.39061952639560815  0.6337739918184452  0.5497461426993447  1.0000
  N   N1        1.0  0.29192872110120105  0.9454030524021217  0.059614019087685426  1.0000
  N   N2        1.0  0.7080712775627891  0.05459694783008131  0.9403859803855902  1.0000
  N   N3        1.0  0.3108089826080953  0.8031516392835858  0.9604444581228336  1.0000
  N   N4        1.0  0.6891910160558947  0.19684836094861738  0.03955554135044187  1.0000
  N   N5        1.0  0.09636745271329605  0.10599009973380748  0.7621154340022412  1.0000
  N   N6        1.0  0.9036325475997761  0.8940098994857889  0.23788456693115953  1.0000
  N   N7        1.0  0.006671883340468774  0.2221329513599984  0.8037317571447047  1.0000
  N   N8        1.0  0.993328116123064  0.777867047517283  0.19626824233000517  1.0000
