data_image0
_chemical_formula_structural       H68C76N12O12S8
_chemical_formula_sum              "H68 C76 N12 O12 S8"
_cell_length_a       5.713045436735494
_cell_length_b       14.097001853772754
_cell_length_c       21.65304956212511
_cell_angle_alpha    89.99985259941859
_cell_angle_beta     92.15386459204926
_cell_angle_gamma    89.99988927686664

_space_group_name_H-M_alt    "P 1"
_space_group_IT_number       1

loop_
  _space_group_symop_operation_xyz
  'x, y, z'

loop_
  _atom_site_type_symbol
  _atom_site_label
  _atom_site_symmetry_multiplicity
  _atom_site_fract_x
  _atom_site_fract_y
  _atom_site_fract_z
  _atom_site_occupancy
  H   H1        1.0  0.29461935615444307  0.7032494877691325  0.8978027131702567  1.0000
  H   H2        1.0  0.20537735336221244  0.2032499477648256  0.6021983222770547  1.0000
  H   H3        1.0  0.7053806436386306  0.2967505122677761  0.10219728718295833  1.0000
  H   H4        1.0  0.7946226464321722  0.796750052272084  0.39780167761434476  1.0000
  H   H5        1.0  0.05710276257080613  0.7793896163649165  0.9031524321084631  1.0000
  H   H6        1.0  0.44289403822783213  0.2793903850838868  0.5968488645512686  1.0000
  H   H7        1.0  0.9428972372235785  0.22061038367199295  0.09684756778293652  1.0000
  H   H8        1.0  0.5571059633181694  0.7206096149530219  0.4031511353578458  1.0000
  H   H9        1.0  0.2545067394392079  0.8565723005450697  0.3552843832484989  1.0000
  H   H10       1.0  0.2454951521801112  0.35657164308078126  0.14471427040234985  1.0000
  H   H11       1.0  0.7454932603551767  0.14342769949183976  0.6447156166429006  1.0000
  H   H12       1.0  0.7545048476142733  0.6434283569561283  0.8552857294890497  1.0000
  H   H13       1.0  0.9976111964848108  0.9116324306612138  0.33965801846693683  1.0000
  H   H14       1.0  0.5023915467519254  0.4116325492921176  0.16034068192677223  1.0000
  H   H15       1.0  0.002388803309573648  0.08836756937569568  0.6603419814244627  1.0000
  H   H16       1.0  0.4976084530424592  0.5883674507447918  0.8396593179646272  1.0000
  H   H17       1.0  0.3805895390963905  0.5887935499656742  0.9800437164330789  1.0000
  H   H18       1.0  0.11941127850434448  0.0887940869104582  0.5199574136650768  1.0000
  H   H19       1.0  0.6194104606966832  0.4112064500712344  0.01995628392013626  1.0000
  H   H20       1.0  0.8805887212900402  0.9112059131264513  0.48004258622632273  1.0000
  H   H21       1.0  0.26914655855652736  0.5222237003923791  0.08045130218982965  1.0000
  H   H22       1.0  0.23085717867583558  0.02222620333135903  0.41955038083232477  1.0000
  H   H23       1.0  0.7308534429894743  0.4777762996445296  0.9195486977192848  1.0000
  H   H24       1.0  0.769142821118549  0.9777737967055505  0.5804496190590748  1.0000
  H   H25       1.0  0.5964721266556062  0.7165419670021501  0.1935281848151964  1.0000
  H   H26       1.0  0.9035316017922874  0.21654365090631264  0.30647186934954895  1.0000
  H   H27       1.0  0.40352787313746746  0.2834580330347584  0.8064718155380185  1.0000
  H   H28       1.0  0.09646839800209715  0.7834563491305969  0.6935281305418506  1.0000
  H   H29       1.0  0.6912955249261893  0.8400961469287165  0.2721553433928129  1.0000
  H   H30       1.0  0.8087089763746874  0.3400964832491911  0.2278431866415608  1.0000
  H   H31       1.0  0.3087044748681953  0.15990385310819308  0.7278446564985865  1.0000
  H   H32       1.0  0.19129102341838627  0.6599035167877174  0.7721568137116542  1.0000
  H   H33       1.0  0.7381999430242674  0.7494050376743603  0.96883108430012  1.0000
  H   H34       1.0  0.7617982124158521  0.24940620974165764  0.5311706368098642  1.0000
  H   H35       1.0  0.26180005677011714  0.25059496236254913  0.031168915591279416  1.0000
  H   H36       1.0  0.2382017873772216  0.750593790295251  0.46882936354335086  1.0000
  H   H37       1.0  0.6209303630574614  0.6801696370110578  0.06855630357029359  1.0000
  H   H38       1.0  0.8790700809606491  0.18017186192239087  0.43144587065949913  1.0000
  H   H39       1.0  0.3790696367369232  0.3198303630258516  0.9314436963211059  1.0000
  H   H40       1.0  0.12092991883373545  0.8198281381145187  0.5685541292319003  1.0000
  H   H41       1.0  0.2761928684314557  0.5890816979045149  0.22827011264848754  1.0000
  H   H42       1.0  0.22381296202403003  0.08908413205389344  0.2717309133120806  1.0000
  H   H43       1.0  0.7238071331145458  0.41091830213239394  0.7717298872606269  1.0000
  H   H44       1.0  0.7761870395219717  0.9109158679830153  0.7282690865970337  1.0000
  H   H45       1.0  0.368884309836944  0.711558048623024  0.30769889150219815  1.0000
  H   H46       1.0  0.13112183844028952  0.21155758171607705  0.1923005096331408  1.0000
  H   H47       1.0  0.6311156899574406  0.2884419514138855  0.6923011083892013  1.0000
  H   H48       1.0  0.8688781613540951  0.7884424183208325  0.8076994902582586  1.0000
  H   H49       1.0  0.8296218883978621  0.9526902324281703  0.005020423053840261  1.0000
  H   H50       1.0  0.6703793097172597  0.45269061315229175  0.4949797332928958  1.0000
  H   H51       1.0  0.17037811139652254  0.04730976760873926  0.9949795768375593  1.0000
  H   H52       1.0  0.32962069007712497  0.5473093868846177  0.5050202665985036  1.0000
  H   H53       1.0  0.1343756635041262  0.7799272028704596  0.07027710086083162  1.0000
  H   H54       1.0  0.36562485403207856  0.2799270709057003  0.42972299837992417  1.0000
  H   H55       1.0  0.8656243362902585  0.2200727971664499  0.9297228990305677  1.0000
  H   H56       1.0  0.6343751457623061  0.7200729291312092  0.5702770015114753  1.0000
  H   H57       1.0  0.45148680621876414  0.8415539501916597  0.005081420552395068  1.0000
  H   H58       1.0  0.04851347592125603  0.3415542975871752  0.4949187896775876  1.0000
  H   H59       1.0  0.5485131953272374  0.15844604984524915  0.9949185793567193  1.0000
  H   H60       1.0  0.9514865238731285  0.6584457024497341  0.5050812102138118  1.0000
  H   H61       1.0  0.10135915982544383  0.8345664574355164  0.178216962915508  1.0000
  H   H62       1.0  0.3986403243517271  0.33456721319356786  0.3217828829230966  1.0000
  H   H63       1.0  0.8986408399689407  0.16543354260139315  0.8217830369758914  1.0000
  H   H64       1.0  0.6013596754413466  0.6654327868433407  0.6782171174301185  1.0000
  H   H65       1.0  0.38458250594458154  0.9522105137302089  0.223823032093192  1.0000
  H   H66       1.0  0.11541466600347042  0.4522106644434112  0.2761765406960413  1.0000
  H   H67       1.0  0.615417493849803  0.04778948630670056  0.7761769677982074  1.0000
  H   H68       1.0  0.8845853355425309  0.5477893355934977  0.7238234592130731  1.0000
  C   C1        1.0  0.06839120386702353  0.6748614866682189  0.9679424029311352  1.0000
  C   C2        1.0  0.43160734389029765  0.17486229058496533  0.53205942394198  1.0000
  C   C3        1.0  0.9316087976789781  0.3251385133686899  0.03205759697797921  1.0000
  C   C4        1.0  0.568392655904087  0.8251377094519442  0.46794057594941946  1.0000
  C   C5        1.0  0.21399105871751836  0.6082116343170769  0.9993989492421607  1.0000
  C   C6        1.0  0.2860092272198606  0.10821373243080477  0.5006023727968549  1.0000
  C   C7        1.0  0.7860089410768663  0.3917883657198326  0.0006010506492388875  1.0000
  C   C8        1.0  0.7139907725745238  0.8917862676061047  0.4993976270945445  1.0000
  C   C9        1.0  0.1511426427578758  0.5705504541555874  0.055532022422458235  1.0000
  C   C10       1.0  0.34885949823709755  0.07055229207651584  0.4444695843893789  1.0000
  C   C11       1.0  0.8488573570351978  0.4294495458813212  0.9444679779307568  1.0000
  C   C12       1.0  0.6511405015572871  0.9294477079603937  0.5555304155020205  1.0000
  C   C13       1.0  0.9377780612122931  0.5966593431510189  0.08059359898822799  1.0000
  C   C14       1.0  0.5622279207266752  0.09665993116647367  0.41940851729187817  1.0000
  C   C15       1.0  0.06222193858209154  0.4033406568858906  0.9194064009031715  1.0000
  C   C16       1.0  0.4377720790663986  0.9033400688704349  0.5805914830613369  1.0000
  C   C17       1.0  0.9289343482697492  0.6440671755077955  0.20721735366509902  1.0000
  C   C18       1.0  0.5710716338852769  0.144069041722955  0.2927842043960243  1.0000
  C   C19       1.0  0.0710656515246354  0.3559328245291142  0.7927826462263005  1.0000
  C   C20       1.0  0.4289283659091077  0.8559309583139545  0.7072157954953752  1.0000
  C   C21       1.0  0.7651011771159497  0.7153761518717051  0.2187669203388098  1.0000
  C   C22       1.0  0.7349017138700694  0.21537782414982912  0.28123338594199193  1.0000
  C   C23       1.0  0.2348988226784351  0.2846238481652045  0.7812330795525896  1.0000
  C   C24       1.0  0.26509828592300433  0.7846221758870795  0.7187666144112231  1.0000
  C   C25       1.0  0.817297831181478  0.7841325394090013  0.263043677944783  1.0000
  C   C26       1.0  0.682706483252853  0.28413333737969687  0.23695533460552487  1.0000
  C   C27       1.0  0.18270216861159574  0.21586746062790724  0.7369563224084321  1.0000
  C   C28       1.0  0.31729351654153165  0.7158666626572125  0.7630446652858744  1.0000
  C   C29       1.0  0.0342681643190781  0.782669820242223  0.2967415854230448  1.0000
  C   C30       1.0  0.46573573965588755  0.28266969932014174  0.2032572406325748  1.0000
  C   C31       1.0  0.9657318354753067  0.21733017979468638  0.7032584144683548  1.0000
  C   C32       1.0  0.534264260138497  0.7173303007167677  0.7967427592588247  1.0000
  C   C33       1.0  0.8514055959636706  0.698665848065406  0.9933642172681189  1.0000
  C   C34       1.0  0.6485942675104114  0.198667298201657  0.5066376023298363  1.0000
  C   C35       1.0  0.1485944038307139  0.30133415197150354  0.006635782623280548  1.0000
  C   C36       1.0  0.35140573228397315  0.8013327018352526  0.49336239756156314  1.0000
  C   C37       1.0  0.7870385500507154  0.6603035038739494  0.04910334086303036  1.0000
  C   C38       1.0  0.7129620526768993  0.16030468397607875  0.4508987566356587  1.0000
  C   C39       1.0  0.2129614497436692  0.3396964961629601  0.9508966590283691  1.0000
  C   C40       1.0  0.28703794711617436  0.8396953160608297  0.5491012437175564  1.0000
  C   C41       1.0  0.14729414693601478  0.643040718355005  0.238960850761949  1.0000
  C   C42       1.0  0.35271035036382803  0.14304266497953386  0.2610405914093006  1.0000
  C   C43       1.0  0.8527058528570589  0.35695928168190366  0.7610391495912662  1.0000
  C   C44       1.0  0.6472896494305566  0.8569573350573757  0.7389594084820988  1.0000
  C   C45       1.0  0.19829949624990714  0.7112893702978994  0.28346306577053604  1.0000
  C   C46       1.0  0.30170694495523326  0.21128969630309313  0.21653666529170076  1.0000
  C   C47       1.0  0.8017005035444774  0.28871062973901007  0.7165369341208635  1.0000
  C   C48       1.0  0.6982930548378404  0.7887103037338156  0.7834633350615142  1.0000
  C   C49       1.0  0.26034113032595857  0.830612099719391  0.08954685763597606  1.0000
  C   C50       1.0  0.2396610913943895  0.3306121011400159  0.41045263137360033  1.0000
  C   C51       1.0  0.739658869468426  0.16938790031751857  0.9104531422554235  1.0000
  C   C52       1.0  0.760338910151612  0.6693878988968929  0.589547368535514  1.0000
  C   C53       1.0  0.43725047571371795  0.8644978073051185  0.05282729517988813  1.0000
  C   C54       1.0  0.06274982551001426  0.3644982389370296  0.44717283876918185  1.0000
  C   C55       1.0  0.5627495240806667  0.13550219273179104  0.9471727047115114  1.0000
  C   C56       1.0  0.9372501742830593  0.635501761099879  0.5528271615840332  1.0000
  C   C57       1.0  0.5958746797123957  0.9299570562051696  0.07859113446683105  1.0000
  C   C58       1.0  0.9041239545150176  0.42995741314697916  0.42140859869496955  1.0000
  C   C59       1.0  0.404125320081989  0.07004294383173995  0.9214088654245683  1.0000
  C   C60       1.0  0.09587604703098403  0.5700425868899297  0.5785914012141448  1.0000
  C   C61       1.0  0.9085347703879418  0.03579396689453095  0.08389881217902379  1.0000
  C   C62       1.0  0.5914595089957866  0.5357927562275488  0.41610074394248414  1.0000
  C   C63       1.0  0.09146523115805977  0.9642060331423778  0.9161011877300905  1.0000
  C   C64       1.0  0.40854049079859805  0.4642072438093607  0.5838992559489153  1.0000
  C   C65       1.0  0.574789885572489  0.9621909387034413  0.13980024653760922  1.0000
  C   C66       1.0  0.9252045764662087  0.4621901143567111  0.3601989930224594  1.0000
  C   C67       1.0  0.42521011422058475  0.03780906133346738  0.8601997538156056  1.0000
  C   C68       1.0  0.0747954233281759  0.5378098856801985  0.6398010068689401  1.0000
  C   C69       1.0  0.2416562465687122  0.8616832237718466  0.1505613194930427  1.0000
  C   C70       1.0  0.2583431564439468  0.3616837184370883  0.34943867663906314  1.0000
  C   C71       1.0  0.7583437532256725  0.13831677626506306  0.8494386803983569  1.0000
  C   C72       1.0  0.7416568433504378  0.6383162815998211  0.6505613232523363  1.0000
  C   C73       1.0  0.3982104340086912  0.9279443842982418  0.17639156831683678  1.0000
  C   C74       1.0  0.10178668715911317  0.4279445267240369  0.323607990753516  1.0000
  C   C75       1.0  0.6017895657856934  0.07205561573866777  0.8236084315745626  1.0000
  C   C76       1.0  0.8982133126352715  0.5720554733128727  0.6763920091378834  1.0000
  N   N1        1.0  0.13183009738534768  0.7158674638378025  0.9138327577227775  1.0000
  N   N2        1.0  0.3681671903362663  0.21586867405931792  0.586168301134968  1.0000
  N   N3        1.0  0.8681699024090368  0.28413253619910694  0.08616724216862207  1.0000
  N   N4        1.0  0.6318328112097352  0.7841313259775909  0.41383169877414644  1.0000
  N   N5        1.0  0.08174884067599061  0.8475932159853352  0.34313609344224144  1.0000
  N   N6        1.0  0.41825431674972496  0.3475931312216803  0.15686249667532687  1.0000
  N   N7        1.0  0.9182511591183941  0.1524067840515743  0.656863906449158  1.0000
  N   N8        1.0  0.5817456847962766  0.6524068688152285  0.8431375032337874  1.0000
  N   N9        1.0  0.7817079459203824  0.9717820361882928  0.049544869688927066  1.0000
  N   N10       1.0  0.7182912973454205  0.47178232923560326  0.4504551114566465  1.0000
  N   N11       1.0  0.21829205562561907  0.028217963848615864  0.9504551302201872  1.0000
  N   N12       1.0  0.281708702448964  0.5282176708013063  0.5495448884347529  1.0000
  O   O1        1.0  0.6065367356594257  0.5420545573823304  0.15205571131875253  1.0000
  O   O2        1.0  0.8934726223467324  0.04205781847632464  0.34794633793289637  1.0000
  O   O3        1.0  0.393463264134959  0.4579454426545791  0.8479442885726469  1.0000
  O   O4        1.0  0.10652737744765205  0.9579421815605849  0.6520536619585031  1.0000
  O   O5        1.0  0.007627592823692583  0.4723568054109609  0.16875496508761603  1.0000
  O   O6        1.0  0.49237710436488963  0.9723598799767691  0.33124687592346985  1.0000
  O   O7        1.0  0.992372406970692  0.5276431946259486  0.8312450348037835  1.0000
  O   O8        1.0  0.5076228971811138  0.027640119350768978  0.6687531239856451  1.0000
  O   O9        1.0  0.07919740566580541  0.08293764069539394  0.066566838740989  1.0000
  O   O10       1.0  0.4207993951314412  0.5829376914877281  0.4334331779621874  1.0000
  O   O11       1.0  0.9208025941285792  0.9170623593415157  0.9334331611504104  1.0000
  O   O12       1.0  0.5792006046629434  0.41706230854918147  0.566566821929212  1.0000
  S   S1        1.0  0.8610453167591207  0.5541307225534288  0.1531532476193294  1.0000
  S   S2        1.0  0.638954281551124  0.05413234886309151  0.34684900589106665  1.0000
  S   S3        1.0  0.13895468303526376  0.4458692774834807  0.8468467522720701  1.0000
  S   S4        1.0  0.36104571824326054  0.9458676511738179  0.6531509940003328  1.0000
  S   S5        1.0  0.7910450152024836  0.04575688581541065  0.15851504175278994  1.0000
  S   S6        1.0  0.7089474982905718  0.5457490990731411  0.3414831598451921  1.0000
  S   S7        1.0  0.20895498459190098  0.9542431142214989  0.8414849581386097  1.0000
  S   S8        1.0  0.2910525015038128  0.4542509009637684  0.6585168400462074  1.0000
