data_image0
_chemical_formula_structural       H106C106N4O16Cl4
_chemical_formula_sum              "H106 C106 N4 O16 Cl4"
_cell_length_a       17.925788791223756
_cell_length_b       9.499294088911627
_cell_length_c       15.224187575019199
_cell_angle_alpha    90.0
_cell_angle_beta     114.89500819390418
_cell_angle_gamma    90.0

_space_group_name_H-M_alt    "P 1"
_space_group_IT_number       1

loop_
  _space_group_symop_operation_xyz
  'x, y, z'

loop_
  _atom_site_type_symbol
  _atom_site_label
  _atom_site_symmetry_multiplicity
  _atom_site_fract_x
  _atom_site_fract_y
  _atom_site_fract_z
  _atom_site_occupancy
  H   H1        1.0  0.7140883203908002  0.2545801579954114  0.498641240434085  1.0000
  H   H2        1.0  0.2859116798688733  0.2545801579954114  0.5013587592329201  1.0000
  H   H3        1.0  0.214088320262787  0.7545801575263436  0.49864124074118665  1.0000
  H   H4        1.0  0.7859116794372418  0.7545801575263436  0.5013587589207767  1.0000
  H   H5        1.0  0.791623801982659  0.3758883972408003  0.6225803726534477  1.0000
  H   H6        1.0  0.2083761977173699  0.3758883972408003  0.37741962700851583  1.0000
  H   H7        1.0  0.29162380241429053  0.8758883967717324  0.622580372965591  1.0000
  H   H8        1.0  0.7083761972857385  0.8758883967717324  0.3774196266963725  1.0000
  H   H9        1.0  0.5531587047584832  0.39112546840053564  0.8002305072707075  1.0000
  H   H10       1.0  0.4468412949415459  0.39112546840053564  0.19976949239125588  1.0000
  H   H11       1.0  0.05315870519011445  0.8911254679314679  0.8002305075828509  1.0000
  H   H12       1.0  0.9468412953245574  0.8911254679314679  0.19976949280827228  1.0000
  H   H13       1.0  0.7071998798063939  0.3923452621969532  0.8837247648300911  1.0000
  H   H14       1.0  0.292800119893635  0.3923452621969532  0.11627523483187238  1.0000
  H   H15       1.0  0.20719987967838083  0.8923452627805951  0.8837247651371927  1.0000
  H   H16       1.0  0.7928001202766467  0.8923452627805951  0.11627523524888879  1.0000
  H   H17       1.0  0.5673915170119207  0.40182285696950487  0.5253752474670419  1.0000
  H   H18       1.0  0.4326084829431069  0.40182285696950487  0.4746247529190396  1.0000
  H   H19       1.0  0.06739151718855349  0.9018228565004369  0.5253752470550672  1.0000
  H   H20       1.0  0.93260848307112  0.9018228565004369  0.4746247526119379  1.0000
  H   H21       1.0  0.4838612576422328  0.3959357984705709  0.6226254397627633  1.0000
  H   H22       1.0  0.5161387423127948  0.3959357984705709  0.3773745606233183  1.0000
  H   H23       1.0  0.9838612572106012  0.8959357990542128  0.6226254394506199  1.0000
  H   H24       1.0  0.016138742489427614  0.8959357990542128  0.37737456021134347  1.0000
  H   H25       1.0  0.7227346220888254  0.8299231212561886  0.6176907855604425  1.0000
  H   H26       1.0  0.27726537817084784  0.8299231212561886  0.38230921410656243  1.0000
  H   H27       1.0  0.22273462196081248  0.32992312172525645  0.6176907858675442  1.0000
  H   H28       1.0  0.777265377994215  0.32992312172525645  0.3823092145185373  1.0000
  H   H29       1.0  0.7368655369583587  0.9936390400859195  0.5792967730613865  1.0000
  H   H30       1.0  0.2631344627416704  0.9936390400859195  0.42070322660057696  1.0000
  H   H31       1.0  0.23686553683034556  0.4936390395022777  0.5792967733684882  1.0000
  H   H32       1.0  0.763134463124682  0.4936390395022777  0.42070322701759333  1.0000
  H   H33       1.0  0.8593532791217395  0.9230617757413419  0.6239502752084733  1.0000
  H   H34       1.0  0.1406467205782893  0.9230617757413419  0.3760497244534899  1.0000
  H   H35       1.0  0.3593532795533711  0.42306177621040986  0.6239502755206169  1.0000
  H   H36       1.0  0.6406467201466579  0.42306177621040986  0.37604972414134663  1.0000
  H   H37       1.0  0.7739274781851394  0.09646681126228736  0.7276714242606895  1.0000
  H   H38       1.0  0.2260725223295327  0.09646681126228736  0.27232857613043365  1.0000
  H   H39       1.0  0.27392747780212773  0.5964668118459293  0.7276714238436732  1.0000
  H   H40       1.0  0.7260725218979013  0.5964668118459293  0.2723285758182903  1.0000
  H   H41       1.0  0.7260651137709454  0.7136895433012918  0.7626279991613568  1.0000
  H   H42       1.0  0.27393488618408207  0.7136895433012918  0.23737200122472474  1.0000
  H   H43       1.0  0.2260651133879338  0.21368954377035965  0.7626279987443404  1.0000
  H   H44       1.0  0.7739348863120951  0.21368954377035965  0.237372000917623  1.0000
  H   H45       1.0  0.6206456917564123  0.08644661511833308  0.6044259884992863  1.0000
  H   H46       1.0  0.37935430819861526  0.08644661511833308  0.39557401188679525  1.0000
  H   H47       1.0  0.1206456919330451  0.5864466146492652  0.6044259880873114  1.0000
  H   H48       1.0  0.8793543077669839  0.5864466146492652  0.39557401157465194  1.0000
  H   H49       1.0  0.5992400618594028  0.9112893620279338  0.6286527495757416  1.0000
  H   H50       1.0  0.4007599380956246  0.9112893620279338  0.3713472508103399  1.0000
  H   H51       1.0  0.09924006147639132  0.41128936249700176  0.6286527491587253  1.0000
  H   H52       1.0  0.9007599382236376  0.41128936249700176  0.3713472505032382  1.0000
  H   H53       1.0  0.8960771977229733  0.9539983187359456  0.8254354636267347  1.0000
  H   H54       1.0  0.1039228019770557  0.9539983187359456  0.1745645360352287  1.0000
  H   H55       1.0  0.3960771981546047  0.4539983181523038  0.8254354639388781  1.0000
  H   H56       1.0  0.6039228018004229  0.4539983181523038  0.17456453644720352  1.0000
  H   H57       1.0  0.8512074102887921  0.8021335805251419  0.753785502378044  1.0000
  H   H58       1.0  0.1487925902258798  0.8021335805251419  0.2462144980130792  1.0000
  H   H59       1.0  0.35120740990578053  0.30213357994150003  0.7537855019610274  1.0000
  H   H60       1.0  0.6487925897942483  0.30213357994150003  0.24621449770093587  1.0000
  H   H61       1.0  0.5714292114418381  0.16661986408522114  0.44252263841191486  1.0000
  H   H62       1.0  0.42857078825819095  0.16661986408522114  0.5574773612500485  1.0000
  H   H63       1.0  0.07142921187346941  0.666619864668863  0.44252263872405817  1.0000
  H   H64       1.0  0.9285707886412027  0.666619864668863  0.557477361667065  1.0000
  H   H65       1.0  0.6544097385016514  0.8289391418244  0.9902156932012053  1.0000
  H   H66       1.0  0.34559026175802193  0.8289391418244  0.009784306465799709  1.0000
  H   H67       1.0  0.15440973837363844  0.3289391422934679  0.9902156935083071  1.0000
  H   H68       1.0  0.8455902615813891  0.3289391422934679  0.00978430687777451  1.0000
  H   H69       1.0  0.486429060108204  0.8757023766334506  0.20359530415774976  1.0000
  H   H70       1.0  0.5135709401514693  0.8757023766334506  0.7964046955092553  1.0000
  H   H71       1.0  0.9864290599315713  0.37570237710251836  0.20359530456972458  1.0000
  H   H72       1.0  0.013570940023456277  0.37570237710251836  0.7964046958163569  1.0000
  H   H73       1.0  0.5074651232712041  0.12180073689376265  0.2651388913941318  1.0000
  H   H74       1.0  0.49253487668382345  0.12180073689376265  0.7348611089919498  1.0000
  H   H75       1.0  0.007465123447836864  0.6218007374774046  0.265138890982157  1.0000
  H   H76       1.0  0.9925348768118365  0.6218007374774046  0.7348611086848479  1.0000
  H   H77       1.0  0.6741222815183407  0.6464947871409281  0.8828849243256842  1.0000
  H   H78       1.0  0.3258777184366869  0.6464947871409281  0.11711507606039741  1.0000
  H   H79       1.0  0.17412228113532907  0.14649478655728626  0.8828849239086677  1.0000
  H   H80       1.0  0.8258777185646998  0.14649478655728626  0.11711507575329566  1.0000
  H   H81       1.0  0.7367993472453573  0.14726789347778602  0.8502635805905118  1.0000
  H   H82       1.0  0.2632006524546715  0.14726789347778602  0.1497364190714516  1.0000
  H   H83       1.0  0.23679934767698887  0.6472678930087181  0.8502635809026552  1.0000
  H   H84       1.0  0.7632006525826844  0.6472678930087181  0.14973641876434984  1.0000
  H   H85       1.0  0.685627648565517  0.07918761467529065  0.9729281056564435  1.0000
  H   H86       1.0  0.3143723519491551  0.07918761467529065  0.027071894734679608  1.0000
  H   H87       1.0  0.18562764818250532  0.5791876142062228  0.9729281052394272  1.0000
  H   H88       1.0  0.8143723515175237  0.5791876142062228  0.027071894422536272  1.0000
  H   H89       1.0  0.5859762623841892  0.7208772184444058  0.4966698958305993  1.0000
  H   H90       1.0  0.4140237381304827  0.7208772184444058  0.5033301045605238  1.0000
  H   H91       1.0  0.08597626200117767  0.2208772189134737  0.4966698954135829  1.0000
  H   H92       1.0  0.9140237376988514  0.2208772189134737  0.5033301042483804  1.0000
  H   H93       1.0  0.5264873982094186  0.6744667624806708  0.31966102313419886  1.0000
  H   H94       1.0  0.47351260174560905  0.6744667624806708  0.6803389772518827  1.0000
  H   H95       1.0  0.026487397826406942  0.1744667629497388  0.3196610227171825  1.0000
  H   H96       1.0  0.973512601873622  0.1744667629497388  0.680338976944781  1.0000
  H   H97       1.0  0.8881818605745967  0.8085746675603798  0.024212833342900024  1.0000
  H   H98       1.0  0.11181813912543231  0.8085746675603798  0.9757871663190635  1.0000
  H   H99       1.0  0.3881818604465837  0.30857466802944766  0.024212833650001764  1.0000
  H   H100      1.0  0.6118181395084439  0.30857466802944766  0.9757871667360798  1.0000
  H   H101      1.0  0.8905830471979658  0.06813946320027672  0.02602211773076093  1.0000
  H   H102      1.0  0.10941695250206318  0.06813946320027672  0.9739778819312025  1.0000
  H   H103      1.0  0.3905830470699527  0.5681394627312089  0.026022118037862665  1.0000
  H   H104      1.0  0.6094169528850748  0.5681394627312089  0.9739778823482188  1.0000
  H   H105      1.0  2.333198339423206e-10  0.2006276110795047  0.9999980001173882  1.0000
  H   H106      1.0  0.49999999980168824  0.7006276106104368  0.9999979998052446  1.0000
  C   C1        1.0  0.6830350589599916  0.4028623826339989  0.6485724151288941  1.0000
  C   C2        1.0  0.31696494155468025  0.4028623826339989  0.35142758526222895  1.0000
  C   C3        1.0  0.18303505857698013  0.902862382164931  0.6485724147118779  1.0000
  C   C4        1.0  0.8169649411230488  0.902862382164931  0.35142758495008564  1.0000
  C   C5        1.0  0.7393975811206052  0.576124600288803  0.568722363570398  1.0000
  C   C6        1.0  0.26060241883442237  0.576124600288803  0.4312776368156837  1.0000
  C   C7        1.0  0.23939758129723804  0.07612460075787084  0.5687223631584231  1.0000
  C   C8        1.0  0.7606024189624353  0.07612460075787084  0.4312776365085819  1.0000
  C   C9        1.0  0.7286034101643405  0.41855156423055223  0.5849242494555382  1.0000
  C   C10       1.0  0.2713965895356884  0.41855156423055223  0.4150757502064251  1.0000
  C   C11       1.0  0.22860341059597197  0.9185515637614844  0.5849242497676815  1.0000
  C   C12       1.0  0.7713965899187  0.9185515637614844  0.41507575062344154  1.0000
  C   C13       1.0  0.7213558591566632  0.4000984930487036  0.7499728968310703  1.0000
  C   C14       1.0  0.27864414054336567  0.4000984930487036  0.25002710283089313  1.0000
  C   C15       1.0  0.22135585958829473  0.9000984925796356  0.7499728971432137  1.0000
  C   C16       1.0  0.7786441409263773  0.9000984925796356  0.2500271032479095  1.0000
  C   C17       1.0  0.5898507249283577  0.3932205503943894  0.7585566450903852  1.0000
  C   C18       1.0  0.41014927558631437  0.3932205503943894  0.24144335530073796  1.0000
  C   C19       1.0  0.08985072454534598  0.8932205499253215  0.7585566446733688  1.0000
  C   C20       1.0  0.9101492751546829  0.8932205499253215  0.24144335498859462  1.0000
  C   C21       1.0  0.6754346412560892  0.39462447366228437  0.8049446338458714  1.0000
  C   C22       1.0  0.3245653584439398  0.39462447366228437  0.195055365816092  1.0000
  C   C23       1.0  0.1754346416877206  0.8946244742459263  0.8049446341580148  1.0000
  C   C24       1.0  0.8245653588269514  0.8946244742459263  0.1950553662331084  1.0000
  C   C25       1.0  0.5970116123831084  0.3997408654220397  0.6041017268663205  1.0000
  C   C26       1.0  0.4029883873169205  0.3997408654220397  0.3958982727956429  1.0000
  C   C27       1.0  0.09701161281473984  0.8997408649529718  0.6041017271784639  1.0000
  C   C28       1.0  0.9029883876999323  0.8997408649529718  0.39589827321265936  1.0000
  C   C29       1.0  0.5506420482425441  0.3957995420300518  0.6577357567517215  1.0000
  C   C30       1.0  0.44935795145748464  0.3957995420300518  0.3422642429102418  1.0000
  C   C31       1.0  0.050642048114531275  0.8957995426136937  0.6577357570588233  1.0000
  C   C32       1.0  0.9493579518404963  0.8957995426136937  0.34226424332725824  1.0000
  C   C33       1.0  0.7357376074897892  0.9357617120598544  0.7989384418971395  1.0000
  C   C34       1.0  0.26426239302488275  0.9357617120598544  0.20106155849398377  1.0000
  C   C35       1.0  0.23573760710677752  0.4357617125289224  0.7989384414801229  1.0000
  C   C36       1.0  0.7642623925932513  0.4357617125289224  0.20106155818184043  1.0000
  C   C37       1.0  0.7692813081685036  0.9809894654043374  0.7274919046738124  1.0000
  C   C38       1.0  0.23071869178652382  0.9809894654043374  0.272508095712269  1.0000
  C   C39       1.0  0.2692813083451365  0.4809894648206955  0.7274919042618376  1.0000
  C   C40       1.0  0.7307186913548924  0.4809894648206955  0.2725080954001257  1.0000
  C   C41       1.0  0.5836157633461009  0.9469637739187681  0.4810755798666665  1.0000
  C   C42       1.0  0.416384236353928  0.9469637739187681  0.5189244197952969  1.0000
  C   C43       1.0  0.08361576321808793  0.4469637743878359  0.48107558017376834  1.0000
  C   C44       1.0  0.9163842367369397  0.4469637743878359  0.5189244202123133  1.0000
  C   C45       1.0  0.7182081242835896  0.7942074978820235  0.8091034193321225  1.0000
  C   C46       1.0  0.281791875671438  0.7942074978820235  0.19089658105395912  1.0000
  C   C47       1.0  0.21820812446022234  0.2942074983510914  0.8091034189201476  1.0000
  C   C48       1.0  0.781791875799451  0.2942074983510914  0.19089658074685742  1.0000
  C   C49       1.0  0.6254040610932385  0.9749870888628472  0.5883646614915119  1.0000
  C   C50       1.0  0.37459593942143343  0.9749870888628472  0.4116353388996112  1.0000
  C   C51       1.0  0.1254040607102269  0.47498708827920527  0.5883646610744956  1.0000
  C   C52       1.0  0.874595938989802  0.47498708827920527  0.41163533858746787  1.0000
  C   C53       1.0  0.8552358907882074  0.9179631958314375  0.7525100748983563  1.0000
  C   C54       1.0  0.14476410891182154  0.9179631958314375  0.24748992476360704  1.0000
  C   C55       1.0  0.35523589066019434  0.41796319630050527  0.7525100752054581  1.0000
  C   C56       1.0  0.6447641092948332  0.41796319630050527  0.2474899251806234  1.0000
  C   C57       1.0  0.5608349205921276  0.05898340495153529  0.41525563692349915  1.0000
  C   C58       1.0  0.43916507910790137  0.05898340495153529  0.5847443627384642  1.0000
  C   C59       1.0  0.06083492102375902  0.5589834055351772  0.41525563723564246  1.0000
  C   C60       1.0  0.939165079490913  0.5589834055351772  0.5847443631554807  1.0000
  C   C61       1.0  0.6775037667271873  0.8580914448700812  0.9369199883884466  1.0000
  C   C62       1.0  0.3224962332278403  0.8580914448700812  0.06308001199763495  1.0000
  C   C63       1.0  0.1775037663441757  0.3580914442864393  0.9369199879714303  1.0000
  C   C64       1.0  0.8224962333558533  0.3580914442864393  0.0630800116905332  1.0000
  C   C65       1.0  0.5134709529161224  0.8954124285854742  0.28130766853399264  1.0000
  C   C66       1.0  0.486529047038905  0.8954124285854742  0.7186923318520888  1.0000
  C   C67       1.0  0.013470953092755242  0.3954124290545421  0.28130766812201785  1.0000
  C   C68       1.0  0.9865290466072737  0.3954124290545421  0.7186923315399455  1.0000
  C   C69       1.0  0.5256025418731625  0.03364873189610054  0.31573638633508244  1.0000
  C   C70       1.0  0.4743974578268666  0.03364873189610054  0.6842636133268809  1.0000
  C   C71       1.0  0.02560254174514938  0.5336487324797425  0.3157363866421842  1.0000
  C   C72       1.0  0.9743974582098781  0.5336487324797425  0.6842636137438974  1.0000
  C   C73       1.0  0.6890278054727682  0.7564374207961052  0.8775175061823184  1.0000
  C   C74       1.0  0.3109721944822594  0.7564374207961052  0.12248249420376314  1.0000
  C   C75       1.0  0.18902780508975653  0.25643742021246335  0.877517505765302  1.0000
  C   C76       1.0  0.8109721946102724  0.25643742021246335  0.12248249389666138  1.0000
  C   C77       1.0  0.7239110033375799  0.03717299798225934  0.8586327894375736  1.0000
  C   C78       1.0  0.27608899661744785  0.03717299798225934  0.14136721094850796  1.0000
  C   C79       1.0  0.22391100320956675  0.5371729985659012  0.8586327897446753  1.0000
  C   C80       1.0  0.7760889967454608  0.5371729985659012  0.14136721064140623  1.0000
  C   C81       1.0  0.6950400362657276  0.9990297448604748  0.9272824243789304  1.0000
  C   C82       1.0  0.3049599642489443  0.9990297448604748  0.07271757601219278  1.0000
  C   C83       1.0  0.19504003588271607  0.4990297453295427  0.927282423961914  1.0000
  C   C84       1.0  0.8049599638173128  0.4990297453295427  0.07271757570004946  1.0000
  C   C85       1.0  0.5697104242943757  0.8086135830836324  0.4457694085656343  1.0000
  C   C86       1.0  0.4302895756606518  0.8086135830836324  0.5542305918204472  1.0000
  C   C87       1.0  0.06971042391136412  0.30861358355270024  0.44576940814861793  1.0000
  C   C88       1.0  0.9302895757886648  0.30861358355270024  0.5542305915133454  1.0000
  C   C89       1.0  0.5353046328007123  0.7825286363833044  0.34629127512654045  1.0000
  C   C90       1.0  0.46469536715431525  0.7825286363833044  0.653708725259541  1.0000
  C   C91       1.0  0.035304632977345  0.2825286368523723  0.3462912747145656  1.0000
  C   C92       1.0  0.9646953672823282  0.2825286368523723  0.6537087249524395  1.0000
  C   C93       1.0  0.9368833922931695  0.8657046063664094  0.014726664002266427  1.0000
  C   C94       1.0  0.0631166076618579  0.8657046063664094  0.9852733363838151  1.0000
  C   C95       1.0  0.4368833924698024  0.36570460683547723  0.014726663590291626  1.0000
  C   C96       1.0  0.5631166072302265  0.36570460683547723  0.9852733360716718  1.0000
  C   C97       1.0  0.9386812693936395  0.011048435706660474  0.0150262753607817  1.0000
  C   C98       1.0  0.061318731121032616  0.011048435706660474  0.9849737250303413  1.0000
  C   C99       1.0  0.4386812690106277  0.5110484362903024  0.015026274943765303  1.0000
  C   C100      1.0  0.5613187306894013  0.5110484362903024  0.9849737247181981  1.0000
  C   C101      1.0  0.0  0.7871871204333619  0.0  1.0000
  C   C102      1.0  0.5000000001280129  0.28718712090242976  0.9999999996928982  1.0000
  C   C103      1.0  0.0  0.6438907915420474  0.0  1.0000
  C   C104      1.0  0.5000000001280129  0.1438907909584055  0.9999999996928982  1.0000
  C   C105      1.0  0.0  0.08585085927089534  0.0  1.0000
  C   C106      1.0  0.5000000001280129  0.5858508588018274  0.9999999996928982  1.0000
  N   N1        1.0  0.7149275149079847  0.9397261182196721  0.6249118252272372  1.0000
  N   N2        1.0  0.28507248479204417  0.9397261182196721  0.3750881744347261  1.0000
  N   N3        1.0  0.2149275147799718  0.43972611868873995  0.6249118255343391  1.0000
  N   N4        1.0  0.7850724851750557  0.43972611868873995  0.37508817485174245  1.0000
  O   O1        1.0  0.6870932401213934  0.3505094408948323  0.49404644026134564  1.0000
  O   O2        1.0  0.3129067595786355  0.3505094408948323  0.5059535594006177  1.0000
  O   O3        1.0  0.18709323999338037  0.8505094414784743  0.4940464405684474  1.0000
  O   O4        1.0  0.8129067599616471  0.8505094414784743  0.5059535598176341  1.0000
  O   O5        1.0  0.744626096923336  0.6098631399108266  0.49038341566026683  1.0000
  O   O6        1.0  0.25537390303169155  0.6098631399108266  0.5096165847258147  1.0000
  O   O7        1.0  0.2446260970999688  0.10986313932718468  0.4903834152482921  1.0000
  O   O8        1.0  0.7553739031597045  0.10986313932718468  0.5096165844187129  1.0000
  O   O9        1.0  0.7431179630540582  0.660967780472136  0.6338891004513219  1.0000
  O   O10       1.0  0.2568820369009695  0.660967780472136  0.3661108999347598  1.0000
  O   O11       1.0  0.2431179632306909  0.1609677809412039  0.633889100039347  1.0000
  O   O12       1.0  0.7568820370289824  0.1609677809412039  0.366110899627658  1.0000
  O   O13       1.0  0.8901257439656195  0.9636748556595995  0.6894462202384796  1.0000
  O   O14       1.0  0.10987425598940814  0.9636748556595995  0.31055378014760204  1.0000
  O   O15       1.0  0.39012574414225226  0.46367485612866743  0.6894462198265048  1.0000
  O   O16       1.0  0.6098742561174212  0.46367485612866743  0.3105537798405003  1.0000
  Cl  Cl1       1.0  0.8281607549134676  0.40489419361061973  0.8110696565183475  1.0000
  Cl  Cl2       1.0  0.17183924534620582  0.40489419361061973  0.18893034314865756  1.0000
  Cl  Cl3       1.0  0.32816075478545453  0.9048941931415517  0.8110696568254491  1.0000
  Cl  Cl4       1.0  0.671839245169573  0.9048941931415517  0.18893034356063237  1.0000
