data_image0
_chemical_formula_structural       H20C8O8F4
_chemical_formula_sum              "H20 C8 O8 F4"
_cell_length_a       10.79549308300685
_cell_length_b       5.932265511536062
_cell_length_c       5.6050519602249995
_cell_angle_alpha    90.0
_cell_angle_beta     90.0
_cell_angle_gamma    90.0

_space_group_name_H-M_alt    "P 1"
_space_group_IT_number       1

loop_
  _space_group_symop_operation_xyz
  'x, y, z'

loop_
  _atom_site_type_symbol
  _atom_site_label
  _atom_site_symmetry_multiplicity
  _atom_site_fract_x
  _atom_site_fract_y
  _atom_site_fract_z
  _atom_site_occupancy
  H   H1        1.0  0.4541207494928548  0.2500000003566908  0.9422463105565921  1.0000
  H   H2        1.0  0.04587925036788112  0.7499999993843758  0.4422463105766632  1.0000
  H   H3        1.0  0.9541207493535907  0.2500000003566908  0.5577536893831946  1.0000
  H   H4        1.0  0.5458792511549294  0.7499999993843758  0.05775368940326566  1.0000
  H   H5        1.0  0.6738986653098469  0.2500000003566908  0.89612997089832  1.0000
  H   H6        1.0  0.8261013342723608  0.7499999993843758  0.3961299709183911  1.0000
  H   H7        1.0  0.173898665449111  0.2500000003566908  0.6038700290414666  1.0000
  H   H8        1.0  0.32610133441162487  0.7499999993843758  0.10387002906153778  1.0000
  H   H9        1.0  0.7535812915118922  0.3983900274531118  0.12711775110313134  1.0000
  H   H10       1.0  0.7464187080703155  0.6016099722879548  0.6271177510830602  1.0000
  H   H11       1.0  0.2535812916511562  0.10160997157457317  0.3728822488767975  1.0000
  H   H12       1.0  0.24641870820957965  0.8983900281664935  0.8728822488567265  1.0000
  H   H13       1.0  0.24641870820957965  0.6016099722879548  0.8728822488567265  1.0000
  H   H14       1.0  0.2535812916511562  0.3983900274531118  0.3728822488767975  1.0000
  H   H15       1.0  0.7464187080703155  0.8983900281664935  0.6271177510830602  1.0000
  H   H16       1.0  0.7535812915118922  0.10160997157457317  0.12711775110313134  1.0000
  H   H17       1.0  0.5284328428665976  0.2500000003566908  0.5717622357012644  1.0000
  H   H18       1.0  0.9715671576419226  0.7499999993843758  0.07176223572133549  1.0000
  H   H19       1.0  0.02843284300586173  0.2500000003566908  0.9282377642385222  1.0000
  H   H20       1.0  0.47156715685487416  0.7499999993843758  0.42823776425859333  1.0000
  C   C1        1.0  0.6968680468928263  0.2500000003566908  0.08567432263031569  1.0000
  C   C2        1.0  0.8031319536156937  0.7499999993843758  0.5856743226102445  1.0000
  C   C3        1.0  0.1968680470320905  0.2500000003566908  0.4143256773496131  1.0000
  C   C4        1.0  0.3031319528286454  0.7499999993843758  0.914325677329542  1.0000
  C   C5        1.0  0.5849057038385205  0.2500000003566908  0.24017339527856243  1.0000
  C   C6        1.0  0.9150942966699999  0.7499999993843758  0.7401733952584914  1.0000
  C   C7        1.0  0.08490570305147205  0.2500000003566908  0.2598266047013664  1.0000
  C   C8        1.0  0.41509429680926385  0.7499999993843758  0.7598266046812954  1.0000
  O   O1        1.0  0.4749272488600368  0.2500000003566908  0.16536431715127098  1.0000
  O   O2        1.0  0.02507275100069908  0.7499999993843758  0.6653643171311998  1.0000
  O   O3        1.0  0.9749272496470851  0.2500000003566908  0.33463568282865785  1.0000
  O   O4        1.0  0.525072750861435  0.7499999993843758  0.8346356828085868  1.0000
  O   O5        1.0  0.6074076125639661  0.2500000003566908  0.4697206749702126  1.0000
  O   O6        1.0  0.8925923870182416  0.7499999993843758  0.9697206749501415  1.0000
  O   O7        1.0  0.10740761270323018  0.2500000003566908  0.030279325009716262  1.0000
  O   O8        1.0  0.39259238715750566  0.7499999993843758  0.5302793249896451  1.0000
  F   F1        1.0  0.4271281741876389  0.2500000003566908  0.7537069754176581  1.0000
  F   F2        1.0  0.07287182659940952  0.7499999993843758  0.2537069754377292  1.0000
  F   F3        1.0  0.9271281740483748  0.2500000003566908  0.7462930245221285  1.0000
  F   F4        1.0  0.5728718264601453  0.7499999993843758  0.24629302454219965  1.0000
