data_image0
_chemical_formula_structural       H52C54N4O12
_chemical_formula_sum              "H52 C54 N4 O12"
_cell_length_a       7.047453933909982
_cell_length_b       11.031930592701032
_cell_length_c       14.76169141831
_cell_angle_alpha    94.51103042559252
_cell_angle_beta     97.87080115805746
_cell_angle_gamma    98.41899794265757

_space_group_name_H-M_alt    "P 1"
_space_group_IT_number       1

loop_
  _space_group_symop_operation_xyz
  'x, y, z'

loop_
  _atom_site_type_symbol
  _atom_site_label
  _atom_site_symmetry_multiplicity
  _atom_site_fract_x
  _atom_site_fract_y
  _atom_site_fract_z
  _atom_site_occupancy
  H   H1        1.0  0.7381061907797544  0.04651982912889868  0.9088685726548781  1.0000
  H   H2        1.0  0.26189380867438833  0.9534801706574956  0.09113142700879799  1.0000
  H   H3        1.0  0.1286891777370741  0.7036144280900223  0.6964993887727324  1.0000
  H   H4        1.0  0.8713108231471922  0.29638557168770163  0.30350061097653125  1.0000
  H   H5        1.0  0.19948024951573842  0.8961344445401042  0.7971803703269998  1.0000
  H   H6        1.0  0.8005197499489639  0.10386555522712765  0.20281963001348383  1.0000
  H   H7        1.0  0.34897885326972317  0.07763808374090202  0.8432222502403361  1.0000
  H   H8        1.0  0.6510211476251029  0.9223619160176594  0.15677775018573492  1.0000
  H   H9        1.0  0.338447769919213  0.998242440825777  0.9431848892320943  1.0000
  H   H10       1.0  0.6615522297796218  0.001757559881395322  0.056815110515725534  1.0000
  H   H11       1.0  0.5012004418369367  0.8663188114303573  0.8308742576111936  1.0000
  H   H12       1.0  0.4987995578724579  0.13368118925765252  0.16912574281343382  1.0000
  H   H13       1.0  0.16950690107635813  0.5045666752004199  0.6832018706701622  1.0000
  H   H14       1.0  0.8304930983777845  0.4954333245859743  0.3167981289935138  1.0000
  H   H15       1.0  0.15509491164052266  0.561309002218555  0.5727310264523743  1.0000
  H   H16       1.0  0.8449050892437436  0.43869099755916896  0.42726897329688923  1.0000
  H   H17       1.0  0.5415373025148263  0.5071682481860215  0.6326699291025821  1.0000
  H   H18       1.0  0.4584626983694399  0.4928317515917024  0.3673300706466814  1.0000
  H   H19       1.0  0.4283139622650262  0.6717051451412527  0.7274446644687511  1.0000
  H   H20       1.0  0.5716860371891165  0.3282948546451415  0.2725553351949249  1.0000
  H   H21       1.0  0.7139675093943342  0.28958824410229106  0.03755105574898281  1.0000
  H   H22       1.0  0.2860324903045008  0.7104117566048811  0.9624489439988371  1.0000
  H   H23       1.0  0.3255446566752598  0.2544061242817344  0.5154208357592115  1.0000
  H   H24       1.0  0.6744553427788829  0.7455938755046596  0.48457916390446454  1.0000
  H   H25       1.0  0.05381365525811284  0.1097988462692895  0.45856612657260165  1.0000
  H   H26       1.0  0.9461863456367132  0.8902011534892721  0.5414338738534695  1.0000
  H   H27       1.0  0.30662266012059236  0.4415876288405904  0.10268511433433741  1.0000
  H   H28       1.0  0.6933773395888022  0.5584123718474193  0.8973148860902901  1.0000
  H   H29       1.0  0.8705774874440524  0.6520462305965681  0.18033726155935906  1.0000
  H   H30       1.0  0.1294225122653421  0.3479537700914417  0.8196627388652684  1.0000
  H   H31       1.0  0.07181130385698083  0.9110936554488246  0.3627092863426676  1.0000
  H   H32       1.0  0.9281886970378453  0.08890634430973708  0.6372907140834034  1.0000
  H   H33       1.0  0.5032179259648831  0.7973401419829379  0.342823943846627  1.0000
  H   H34       1.0  0.4967820737339518  0.20265985872423437  0.6571760559011929  1.0000
  H   H35       1.0  0.4857077383914721  0.880139538591698  0.24661707666476643  1.0000
  H   H36       1.0  0.5142922610732303  0.11986046117553376  0.7533829236757172  1.0000
  H   H37       1.0  0.6830635155872562  0.04280115460394517  0.37357226807522365  1.0000
  H   H38       1.0  0.31693648529701013  0.9571988451737788  0.62642773167404  1.0000
  H   H39       1.0  0.3430468841401602  0.7014313379290722  0.14013525992144016  1.0000
  H   H40       1.0  0.6569531153139825  0.2985686618573219  0.8598647397422359  1.0000
  H   H41       1.0  0.38595540880943013  0.6150103350927322  0.23354436666923128  1.0000
  H   H42       1.0  0.6140445906447125  0.3849896646936619  0.7664556329944449  1.0000
  H   H43       1.0  0.041522567142733065  0.275112904200385  0.0324980612191879  1.0000
  H   H44       1.0  0.9584774325561018  0.7248870965067873  0.9675019385286321  1.0000
  H   H45       1.0  0.6443105904797795  0.22788513113729292  0.47449506380342715  1.0000
  H   H46       1.0  0.3556894089743633  0.7721148686491013  0.5255049358602488  1.0000
  H   H47       1.0  0.1501303942195006  0.7208193692161278  0.31394122972398747  1.0000
  H   H48       1.0  0.8498696066647657  0.27918063056159603  0.686058770025276  1.0000
  H   H49       1.0  0.12070098340118521  0.8121968185441337  0.22042134563083865  1.0000
  H   H50       1.0  0.8792990174830813  0.18780318123359027  0.7795786541184249  1.0000
  H   H51       1.0  0.6199794701701326  0.4739549412510292  0.10488487419455686  1.0000
  H   H52       1.0  0.3800205307246935  0.5260450585075324  0.8951151262315142  1.0000
  C   C1        1.0  0.71257450372761  0.781216291466689  0.7662225512180981  1.0000
  C   C2        1.0  0.28742549715665633  0.21878370831103508  0.2337774485311654  1.0000
  C   C3        1.0  0.7833112899189213  0.9746346208345636  0.865508324687464  1.0000
  C   C4        1.0  0.21668870954578098  0.02536537893266807  0.1344916756530196  1.0000
  C   C5        1.0  0.9755536365943819  0.6952047611992588  0.7032029556979011  1.0000
  C   C6        1.0  0.024446364545136393  0.3047952394800807  0.2967970448123138  1.0000
  C   C7        1.0  0.04650998574949149  0.8926125610238377  0.8030321091536377  1.0000
  C   C8        1.0  0.9534900139599031  0.1073874396641722  0.19696789127098985  1.0000
  C   C9        1.0  0.982430960507664  0.9828159765807069  0.8565589774038419  1.0000
  C   C10       1.0  0.01756903894647872  0.01718402320568734  0.1434410222598342  1.0000
  C   C11       1.0  0.9134073438069625  0.7903084469541677  0.7566469667977854  1.0000
  C   C12       1.0  0.08659265589187233  0.20969155375300444  0.24335303295003446  1.0000
  C   C13       1.0  0.3031125098163198  0.08110440508735955  0.9119472090835434  1.0000
  C   C14       1.0  0.6968874896378229  0.9188955946990346  0.08805279058013259  1.0000
  C   C15       1.0  0.6534074978512106  0.8753815674349396  0.8215883340456991  1.0000
  C   C16       1.0  0.34659250161349187  0.12461843233229222  0.17841166629478447  1.0000
  C   C17       1.0  0.8431987580935573  0.5942275415150472  0.6613829006573513  1.0000
  C   C18       1.0  0.15680124136058549  0.40577245827134706  0.33861709900632486  1.0000
  C   C19       1.0  0.09055140402899575  0.48970927118414737  0.6124793483983723  1.0000
  C   C20       1.0  0.9094485971105225  0.5102907294951922  0.3875206521118428  1.0000
  C   C21       1.0  0.11707264463513  0.3642289698847339  0.5690247082538029  1.0000
  C   C22       1.0  0.8829273562491363  0.63577102989299  0.4309752914954607  1.0000
  C   C23       1.0  0.6428722936017883  0.5864130993436126  0.6683091695329906  1.0000
  C   C24       1.0  0.35712770610760625  0.4135869013443971  0.3316908308916368  1.0000
  C   C25       1.0  0.42251356617505487  0.1955998668719334  0.9676748200535069  1.0000
  C   C26       1.0  0.5774864332790879  0.8044001329144608  0.032325179610169126  1.0000
  C   C27       1.0  0.5815023953012818  0.6778793717687228  0.7203257949056575  1.0000
  C   C28       1.0  0.41849760415286086  0.3221206280176714  0.2796742047580185  1.0000
  C   C29       1.0  0.1123635913535811  0.5604721656881876  0.15156836276104096  1.0000
  C   C30       1.0  0.8876364083452539  0.4395278350189847  0.848431636986779  1.0000
  C   C31       1.0  0.18785279085862386  0.08660142382531164  0.4375876354666744  1.0000
  C   C32       1.0  0.8121472086060785  0.9133985759419201  0.5624123648738092  1.0000
  C   C33       1.0  0.1577646029899264  0.4535581055285264  0.1072535020761432  1.0000
  C   C34       1.0  0.8422353967194681  0.5464418951594834  0.8927464983484843  1.0000
  C   C35       1.0  0.9156546730360732  0.5693018974871235  0.15110729677932616  1.0000
  C   C36       1.0  0.08434532785875283  0.43069810227143807  0.848892703646745  1.0000
  C   C37       1.0  0.20056537382397294  0.9799823007266486  0.38402393525814366  1.0000
  C   C38       1.0  0.7994346270708531  0.02001769903191294  0.6159760651679275  1.0000
  C   C39       1.0  0.4055386356795765  0.8486278214670228  0.3016612012280793  1.0000
  C   C40       1.0  0.5944613637745662  0.1513721783193714  0.6983387984355967  1.0000
  C   C41       1.0  0.5407336051427468  0.05303522172241616  0.3913514564823502  1.0000
  C   C42       1.0  0.4592663945666477  0.9469647789655934  0.6086485439422772  1.0000
  C   C43       1.0  0.27441142589322204  0.6598451963124969  0.19557392330055806  1.0000
  C   C44       1.0  0.7255885735714804  0.34015480345473476  0.8044260770399255  1.0000
  C   C45       1.0  0.37995032754218255  0.9612639520289833  0.3594113767071436  1.0000
  C   C46       1.0  0.6200496719119601  0.03873604775741082  0.6405886229565324  1.0000
  C   C47       1.0  0.012034970581051506  0.3593847038900597  0.06768053770621035  1.0000
  C   C48       1.0  0.9879650303137746  0.6406152958685017  0.9323194627198607  1.0000
  C   C49       1.0  0.5211022101872412  0.15669875994380822  0.44628088622201256  1.0000
  C   C50       1.0  0.4788977892669014  0.843301239842586  0.5537191134416635  1.0000
  C   C51       1.0  0.22177143664099538  0.7611133246354838  0.25917371825700763  1.0000
  C   C52       1.0  0.7782285630578396  0.23888667607168848  0.7408262814908122  1.0000
  C   C53       1.0  0.7749636938413826  0.472253752786273  0.10990820181623943  1.0000
  C   C54       1.0  0.22503630705344335  0.5277462469722886  0.8900917986098317  1.0000
  N   N1        1.0  0.3458203365293607  0.17119518918037432  0.46823790856218017  1.0000
  N   N2        1.0  0.6541796643549056  0.8288048105973497  0.5317620911870834  1.0000
  N   N3        1.0  0.8253057699163993  0.3700534680665844  0.0708212692895544  1.0000
  N   N4        1.0  0.17469422953774344  0.6299465317198097  0.9291787303741218  1.0000
  O   O1        1.0  0.09993995814170085  0.08401920199616768  0.9042231276798497  1.0000
  O   O2        1.0  0.9000600413230015  0.9159807977710642  0.09577687266063398  1.0000
  O   O3        1.0  0.9752413602923108  0.2861392126512419  0.5319907039985805  1.0000
  O   O4        1.0  0.02475863917239155  0.7138607871159898  0.4680092963419031  1.0000
  O   O5        1.0  0.8896540268725401  0.4949589920656029  0.6129831565511864  1.0000
  O   O6        1.0  0.11034597425641848  0.505041008632899  0.387016843282221  1.0000
  O   O7        1.0  0.5994613440485115  0.17939716133251518  0.9930727018731366  1.0000
  O   O8        1.0  0.4005386568357548  0.8206028384452088  0.006927297876127003  1.0000
  O   O9        1.0  0.29792415545300266  0.3522180894780909  0.5752211747308754  1.0000
  O   O10       1.0  0.7020758440116998  0.6477819102891409  0.42477882560960817  1.0000
  O   O11       1.0  0.35531882078490445  0.29249725292355877  0.9817212754350846  1.0000
  O   O12       1.0  0.6446811789139305  0.7075027477836133  0.018278724312735427  1.0000
