data_image0
_chemical_formula_structural       H100C124N8O16S8Br4
_chemical_formula_sum              "H100 C124 N8 O16 S8 Br4"
_cell_length_a       7.799936986066301
_cell_length_b       19.60096811688733
_cell_length_c       17.79685125820404
_cell_angle_alpha    90.0
_cell_angle_beta     88.96288063935458
_cell_angle_gamma    90.0

_space_group_name_H-M_alt    "P 1"
_space_group_IT_number       1

loop_
  _space_group_symop_operation_xyz
  'x, y, z'

loop_
  _atom_site_type_symbol
  _atom_site_label
  _atom_site_symmetry_multiplicity
  _atom_site_fract_x
  _atom_site_fract_y
  _atom_site_fract_z
  _atom_site_occupancy
  H   H1        1.0  0.025495133336192632  0.35457292561035336  0.8586047638040128  1.0000
  H   H2        1.0  0.4745048675502478  0.8545729256897543  0.6413952363811615  1.0000
  H   H3        1.0  0.9745048671994039  0.6454270740382696  0.14139523617752991  1.0000
  H   H4        1.0  0.5254951329853486  0.1454270744690475  0.3586047636003813  1.0000
  H   H5        1.0  0.551050025036518  0.22713885678760076  0.6941630171521537  1.0000
  H   H6        1.0  0.9489499751257467  0.7271388568670016  0.8058369828264489  1.0000
  H   H7        1.0  0.44894997549907845  0.772861143371201  0.3058369828293891  1.0000
  H   H8        1.0  0.051050024127589765  0.27286114329180017  0.19416301716767076  1.0000
  H   H9        1.0  0.5066819887488655  0.27765590952169006  0.8028477142884697  1.0000
  H   H10       1.0  0.9933180114133991  0.777655909601091  0.697152285690133  1.0000
  H   H11       1.0  0.493318010504471  0.7223440901269329  0.1971522857056501  1.0000
  H   H12       1.0  0.0066819891221972854  0.22234409055771084  0.3028477142914098  1.0000
  H   H13       1.0  0.31495402224591945  0.3360669988705673  0.8111754722183726  1.0000
  H   H14       1.0  0.1850459773582611  0.8360669989499682  0.6888245279793788  1.0000
  H   H15       1.0  0.685045977007417  0.6639330012882346  0.18882452777574718  1.0000
  H   H16       1.0  0.8149540231773353  0.1639330012088336  0.311175472002164  1.0000
  H   H17       1.0  0.4050611276650136  0.15952593929817338  0.5985952620056314  1.0000
  H   H18       1.0  0.09493887193916685  0.6595259388673954  0.9014047381921197  1.0000
  H   H19       1.0  0.5949388728705829  0.8404740608606284  0.40140473797591136  1.0000
  H   H20       1.0  0.9050611273141697  0.34047406078122755  0.09859526180199985  1.0000
  H   H21       1.0  0.22903494651824371  0.4297165894955583  0.06624450187645961  1.0000
  H   H22       1.0  0.27096505310842456  0.9297165895749593  0.43375549812060027  1.0000
  H   H23       1.0  0.7709650540173527  0.5702834106632435  0.9337554981050832  1.0000
  H   H24       1.0  0.729034946144912  0.07028341058384259  0.5662445018735195  1.0000
  H   H25       1.0  0.9697242239621905  0.4029842527622231  0.9854743637123855  1.0000
  H   H26       1.0  0.5302757762000743  0.902984252841624  0.5145256362662171  1.0000
  H   H27       1.0  0.03027577657340602  0.5970157473965787  0.014525636269157198  1.0000
  H   H28       1.0  0.4697242243355222  0.09701574731717783  0.48547436371532565  1.0000
  H   H29       1.0  0.9158370403068021  0.3487708632161996  0.7244444331337638  1.0000
  H   H30       1.0  0.5841629598554625  0.8487708632956005  0.7755555668448388  1.0000
  H   H31       1.0  0.08416296022879421  0.6512291369426023  0.27555556684777893  1.0000
  H   H32       1.0  0.41583703939787403  0.15122913686320133  0.2244444331492809  1.0000
  H   H33       1.0  0.24699745073736903  0.21567632449530913  0.4966596550004791  1.0000
  H   H34       1.0  0.25300255017155915  0.7156763245747101  0.003340344984003836  1.0000
  H   H35       1.0  0.7530025497982273  0.7843236751533138  0.5033403449810636  1.0000
  H   H36       1.0  0.7469974503640373  0.28432367558409183  0.996659654997539  1.0000
  H   H37       1.0  0.1701542072698027  0.27700181631958165  0.6918767359121761  1.0000
  H   H38       1.0  0.3298457923343777  0.7770018163989826  0.8081232642855752  1.0000
  H   H39       1.0  0.8298457919835337  0.7229981838392202  0.3081232640819437  1.0000
  H   H40       1.0  0.6701542082012187  0.2229981837598193  0.19187673569596755  1.0000
  H   H41       1.0  0.910645601671928  0.10190269929979304  0.7862507439666868  1.0000
  H   H42       1.0  0.5893543972080769  0.6019026993791939  0.7137492560244927  1.0000
  H   H43       1.0  0.0893543975814086  0.89809730034883  0.21374925602743286  1.0000
  H   H44       1.0  0.41064560204525963  0.3980973007796079  0.28625074396962696  1.0000
  H   H45       1.0  0.16463771439684372  0.1525696920767656  0.719681848269133  1.0000
  H   H46       1.0  0.33536228520733685  0.6525696921561666  0.7803181519286184  1.0000
  H   H47       1.0  0.8353622861387526  0.8474303075718574  0.28031815171240987  1.0000
  H   H48       1.0  0.6646377140459997  0.34743030749245646  0.21968184806550137  1.0000
  H   H49       1.0  0.23599503204238795  0.34369854589967164  0.49253937980371304  1.0000
  H   H50       1.0  0.26400496886654023  0.8436985459790726  0.00746062018076986  1.0000
  H   H51       1.0  0.7640049684932085  0.6563014542591302  0.5074606201778297  1.0000
  H   H52       1.0  0.7359950316690562  0.1563014541797293  0.9925393798007729  1.0000
  H   H53       1.0  0.2674024707157896  0.528705647506848  0.5270227876961869  1.0000
  H   H54       1.0  0.2325975301651626  0.028705647427447127  0.9729772119271388  1.0000
  H   H55       1.0  0.7325975298198069  0.47129435265195385  0.4729772122853558  1.0000
  H   H56       1.0  0.7674024703704339  0.9712943527313548  0.027022788054403887  1.0000
  H   H57       1.0  0.2756658384578377  0.2800837834775178  0.003009882301520336  1.0000
  H   H58       1.0  0.2243341611688305  0.7800837835569188  0.4969901176955395  1.0000
  H   H59       1.0  0.7243341620777588  0.7199162161711052  0.9969901176800223  1.0000
  H   H60       1.0  0.775665838084506  0.21991621609170428  0.5030098822985802  1.0000
  H   H61       1.0  0.43985962000975204  0.20169354678935142  0.08714070267792988  1.0000
  H   H62       1.0  0.06014037961691617  0.7016935463585735  0.41285929731912996  1.0000
  H   H63       1.0  0.5601403792435844  0.7983064533694504  0.9128592973161898  1.0000
  H   H64       1.0  0.9398596209186802  0.2983064532900495  0.5871407026624128  1.0000
  H   H65       1.0  0.41153358544529195  0.07439122043893999  0.06731660687726433  1.0000
  H   H66       1.0  0.08846641418137632  0.5743912205183409  0.43268339311979553  1.0000
  H   H67       1.0  0.5884664138080445  0.9256087797198618  0.9326833931168553  1.0000
  H   H68       1.0  0.9115335863542201  0.4256087796404609  0.5673166068617472  1.0000
  H   H69       1.0  0.074733794090202  0.10027850197391852  0.8937387457154056  1.0000
  H   H70       1.0  0.42526620550849026  0.6002785020533195  0.6062612539204972  1.0000
  H   H71       1.0  0.9252662051631345  0.8997214976747044  0.1062612542787142  1.0000
  H   H72       1.0  0.5747337950271062  0.39972149759530357  0.3937387460610455  1.0000
  H   H73       1.0  0.0918238970450749  0.22923557159040647  0.9031892164272843  1.0000
  H   H74       1.0  0.4081761025536173  0.7292355716698073  0.5968107832086185  1.0000
  H   H75       1.0  0.9081761034905216  0.7707644285683954  0.0968107835542584  1.0000
  H   H76       1.0  0.5918238966997191  0.2707644284889945  0.4031892167855013  1.0000
  H   H77       1.0  0.19505169381307305  0.026787847766949063  0.6531141617590456  1.0000
  H   H78       1.0  0.30494830579110743  0.5267878473361711  0.8468858384387058  1.0000
  H   H79       1.0  0.8049483067280117  0.9732121523918528  0.34688583878434565  1.0000
  H   H80       1.0  0.6950516934622291  0.4732121523124519  0.15311416155541402  1.0000
  H   H81       1.0  0.4822366039113297  0.035984537385799695  0.5899202843348486  1.0000
  H   H82       1.0  0.017763395687362585  0.5359845374652006  0.9100797153010541  1.0000
  H   H83       1.0  0.5177633953420069  0.9640154622628232  0.4100797156592711  1.0000
  H   H84       1.0  0.9822366048482339  0.4640154626936012  0.08992028468048857  1.0000
  H   H85       1.0  0.720315487502528  0.9831314078511019  0.8001756991245824  1.0000
  H   H86       1.0  0.7796845126597366  0.4831314077717009  0.6998243008540203  1.0000
  H   H87       1.0  0.27968451303306835  0.016868592307700072  0.1998243008569604  1.0000
  H   H88       1.0  0.22031548787585983  0.5168685918769221  0.3001756991275225  1.0000
  H   H89       1.0  0.4195787864453519  0.97294811084201  0.8564190884068008  1.0000
  H   H90       1.0  0.08042121315882864  0.4729481107626092  0.6435809117909504  1.0000
  H   H91       1.0  0.5804212140902446  0.027051889316791748  0.14358091157474193  1.0000
  H   H92       1.0  0.9195787860945079  0.5270518893961926  0.3564190882031693  1.0000
  H   H93       1.0  0.7522818226592206  0.015410547489221056  0.6639196881091397  1.0000
  H   H94       1.0  0.7477181762207842  0.5154105475686219  0.83608031188204  1.0000
  H   H95       1.0  0.24771817659411596  0.984589452159402  0.33608031188498005  1.0000
  H   H96       1.0  0.2522818230325523  0.48458945208000104  0.1639196881120798  1.0000
  H   H97       1.0  0.18822962457731213  0.9905729311029218  0.7835588558800513  1.0000
  H   H98       1.0  0.3117703750213801  0.4905729310235209  0.7164411437558514  1.0000
  H   H99       1.0  0.8117703746760244  0.00942706905588005  0.21644114411406845  1.0000
  H   H100      1.0  0.6882296242319563  0.5094270686251021  0.2835588562382682  1.0000
  C   C1        1.0  0.4411253380429973  0.3725782224862735  0.9118642195446982  1.0000
  C   C2        1.0  0.058874662837954936  0.8725782225656744  0.5881357800786277  1.0000
  C   C3        1.0  0.5588746624925991  0.6274217771623496  0.08813578043684457  1.0000
  C   C4        1.0  0.9411253376976415  0.12742177708294858  0.4118642199029151  1.0000
  C   C5        1.0  0.4109002695920443  0.39991284783768105  0.9844214414481998  1.0000
  C   C6        1.0  0.08909973001213624  0.8999128479170819  0.5155785587495515  1.0000
  C   C7        1.0  0.5890997309435523  0.6000871518109419  0.015578558533342906  1.0000
  C   C8        1.0  0.9109002692412003  0.10008715224171989  0.48442144124456826  1.0000
  C   C9        1.0  0.5535738133056816  0.4186314972335694  0.03679411881202467  1.0000
  C   C10       1.0  0.946426186884559  0.9186314973129703  0.46320588152773506  1.0000
  C   C11       1.0  0.44642618722991495  0.5813685029252325  0.9632058811695182  1.0000
  C   C12       1.0  0.053573813651037305  0.08136850284583154  0.5367941184538078  1.0000
  C   C13       1.0  0.7727666043861688  0.2676949489795531  0.776143542687481  1.0000
  C   C14       1.0  0.7272333957760958  0.767694949058954  0.7238564572911217  1.0000
  C   C15       1.0  0.2272333948671677  0.7323050511792488  0.22385645730663875  1.0000
  C   C16       1.0  0.27276660475950054  0.23230505109984786  0.27614354269042113  1.0000
  C   C17       1.0  0.13246637375327575  0.36722469099873467  0.8945317328061112  1.0000
  C   C18       1.0  0.3675336258509048  0.8672246905679568  0.6054682673916402  1.0000
  C   C19       1.0  0.8675336255000609  0.6327753091600672  0.10546826718800859  1.0000
  C   C20       1.0  0.6324663746846918  0.13277530908066626  0.39453173258990265  1.0000
  C   C21       1.0  0.48137334944943794  0.2537275322495535  0.650770977604993  1.0000
  C   C22       1.0  0.01862665015474258  0.7537275323289544  0.8492290225927583  1.0000
  C   C23       1.0  0.5186266510916467  0.7462724673990694  0.3492290229383983  1.0000
  C   C24       1.0  0.9813733490985939  0.24627246731966854  0.15077097740136136  1.0000
  C   C25       1.0  0.47306904054464544  0.32555135909344735  0.6503500381085416  1.0000
  C   C26       1.0  0.026930959054046844  0.8255513591728482  0.8496499615273613  1.0000
  C   C27       1.0  0.5269309599909511  0.6744486405551756  0.3496499618730011  1.0000
  C   C28       1.0  0.9730690401992896  0.17444864047577466  0.15035003846675848  1.0000
  C   C29       1.0  0.617925750233009  0.3110460393406417  0.793174022640299  1.0000
  C   C30       1.0  0.8820742499292556  0.8110460394200426  0.7068259773383038  1.0000
  C   C31       1.0  0.3820742490203275  0.6889539608181601  0.20682597735382077  1.0000
  C   C32       1.0  0.11792575060634079  0.18895396073875922  0.29317402264323905  1.0000
  C   C33       1.0  0.3657231931552616  0.43363853353125975  0.586142855816101  1.0000
  C   C34       1.0  0.1342768064434307  0.9336385331004818  0.9138571438198017  1.0000
  C   C35       1.0  0.6342768073803349  0.566361466627542  0.4138571441654418  1.0000
  C   C36       1.0  0.8657231928099057  0.06636146654814117  0.08614285617431794  1.0000
  C   C37       1.0  0.7776534467238866  0.1979963783858395  0.7945889927356021  1.0000
  C   C38       1.0  0.7223465534383781  0.6979963779550615  0.7054110072430005  1.0000
  C   C39       1.0  0.2223465538117098  0.8020036217729624  0.20541100724594072  1.0000
  C   C40       1.0  0.2776534470972184  0.3020036216935614  0.29458899273854217  1.0000
  C   C41       1.0  0.2988989869799718  0.35620115487993237  0.867724897369521  1.0000
  C   C42       1.0  0.20110101262420865  0.8562011549593332  0.6322751028282303  1.0000
  C   C43       1.0  0.7011010122733647  0.6437988452788694  0.1322751026245988  1.0000
  C   C44       1.0  0.7988989866346161  0.14379884519946856  0.36772489772773786  1.0000
  C   C45       1.0  0.39997302506847243  0.21502853761436108  0.5963760714462399  1.0000
  C   C46       1.0  0.10002697581247978  0.7150285376937621  0.9036239281770861  1.0000
  C   C47       1.0  0.6000269754671241  0.7849714625444407  0.4036239285353029  1.0000
  C   C48       1.0  0.8999730247231167  0.2849714624650398  0.09637607180445681  1.0000
  C   C49       1.0  0.2420926399166636  0.40964752618938993  0.009648833800522602  1.0000
  C   C50       1.0  0.25790736099226463  0.9096475262687909  0.49035116618396024  1.0000
  C   C51       1.0  0.7579073606189328  0.590352473459233  0.9903511661810203  1.0000
  C   C52       1.0  0.7420926395433318  0.09035247389001097  0.5096488337975824  1.0000
  C   C53       1.0  0.10130248040042823  0.394291191328528  0.9658912554188747  1.0000
  C   C54       1.0  0.398697519198264  0.894291191407929  0.5341087442170283  1.0000
  C   C55       1.0  0.8986975188529082  0.6057088088302739  0.03410874457524512  1.0000
  C   C56       1.0  0.6013024800550725  0.10570880875087289  0.46589125577709156  1.0000
  C   C57       1.0  0.3829968087069628  0.3579063267776002  0.5914864105375659  1.0000
  C   C58       1.0  0.11700319217947774  0.8579063268570012  0.9085135896476085  1.0000
  C   C59       1.0  0.6170031918286337  0.6420936728710227  0.4085135894439769  1.0000
  C   C60       1.0  0.8829968083561187  0.14209367279162183  0.09148641033393427  1.0000
  C   C61       1.0  0.9181593951781144  0.2948596908854011  0.7396250207435755  1.0000
  C   C62       1.0  0.5818406049841504  0.794859690964802  0.7603749792350271  1.0000
  C   C63       1.0  0.08184060407522213  0.7051403087632219  0.2603749792505442  1.0000
  C   C64       1.0  0.41815939555144616  0.20514030919399986  0.23962502074651568  1.0000
  C   C65       1.0  0.30958694077514026  0.24658934962685664  0.53903733238177  1.0000
  C   C66       1.0  0.19041306011130016  0.7465893497062576  0.9609626678034042  1.0000
  C   C67       1.0  0.6904130597604562  0.7534106505319451  0.46096266759977267  1.0000
  C   C68       1.0  0.8095869404242962  0.25341065045254424  0.03903733217813843  1.0000
  C   C69       1.0  0.05986180194180498  0.2546084897561944  0.7209850043014849  1.0000
  C   C70       1.0  0.44013819766237555  0.7546084898355953  0.7790149958962664  1.0000
  C   C71       1.0  0.9401381973115316  0.7453915104026075  0.2790149956926349  1.0000
  C   C72       1.0  0.559861802873221  0.24539151032320658  0.22098500408527633  1.0000
  C   C73       1.0  0.9159693429165797  0.15636904420855338  0.7743285909764189  1.0000
  C   C74       1.0  0.5840306572456851  0.6563690442879543  0.7256714090021836  1.0000
  C   C75       1.0  0.08403065761901687  0.8436309554400696  0.22567140900512386  1.0000
  C   C76       1.0  0.4159693420076514  0.3436309558708476  0.27432859099193607  1.0000
  C   C77       1.0  0.05794224597998454  0.18499972135946943  0.7373364866240546  1.0000
  C   C78       1.0  0.44205775490645594  0.6849997214388703  0.7626635135611198  1.0000
  C   C79       1.0  0.9420577545556119  0.8150002787993325  0.2626635133574882  1.0000
  C   C80       1.0  0.5579422456291405  0.3150002787199315  0.23733648642042296  1.0000
  C   C81       1.0  0.3035376721138595  0.3173870827655793  0.5370467415975326  1.0000
  C   C82       1.0  0.19646232749032103  0.8173870828449802  0.9629532586002187  1.0000
  C   C83       1.0  0.6964623284217369  0.6826129173932225  0.4629532583840102  1.0000
  C   C84       1.0  0.8035376717630155  0.18261291731382162  0.037046741393901045  1.0000
  C   C85       1.0  0.26657573605483165  0.22495528096906123  0.99659678242923  1.0000
  C   C86       1.0  0.2334242635493489  0.7249552810484621  0.5034032177685211  1.0000
  C   C87       1.0  0.733424263198505  0.7750447186795617  0.0034032175648896035  1.0000
  C   C88       1.0  0.7665757369862476  0.27504471860016083  0.49659678221302156  1.0000
  C   C89       1.0  0.3578463511988844  0.18158005608578065  0.04362997965953976  1.0000
  C   C90       1.0  0.14215364842778383  0.6815800561651816  0.4563700203375201  1.0000
  C   C91       1.0  0.6421536480544521  0.8184199440730211  0.95637002033458  1.0000
  C   C92       1.0  0.8578463521078127  0.3184199439936202  0.5436299796440227  1.0000
  C   C93       1.0  0.3431735952858035  0.11165011069603893  0.03394874598390786  1.0000
  C   C94       1.0  0.15682640434086476  0.6116501107754398  0.46605125401315195  1.0000
  C   C95       1.0  0.6568264039675329  0.8883498894627629  0.9660512540102121  1.0000
  C   C96       1.0  0.8431735961947316  0.388349889383362  0.5339487459683907  1.0000
  C   C97       1.0  0.153443293481343  0.12665300740228075  0.9344728638427626  1.0000
  C   C98       1.0  0.34655670612283757  0.6266530074816817  0.565527136354989  1.0000
  C   C99       1.0  0.8465567057719935  0.8733469927565211  0.06552713615135726  1.0000
  C   C100      1.0  0.6534432944127588  0.3733469926771202  0.4344728636265539  1.0000
  C   C101      1.0  0.16364012011020254  0.19697768992714051  0.941069068363179  1.0000
  C   C102      1.0  0.33635987949397794  0.6969776900065414  0.5589309318345723  1.0000
  C   C103      1.0  0.8363598791431339  0.8030223102316613  0.05893093163094075  1.0000
  C   C104      1.0  0.6636401210416185  0.3030223101522604  0.4410690681469705  1.0000
  C   C105      1.0  0.31587479612115427  0.016206078603144228  0.6830684650834229  1.0000
  C   C106      1.0  0.1841252034830262  0.5162060781723663  0.8169315351143284  1.0000
  C   C107      1.0  0.6841252044144422  0.9837939215556576  0.31693153489811987  1.0000
  C   C108      1.0  0.8158747957703103  0.4837939214762567  0.18306846487979134  1.0000
  C   C109      1.0  0.47711698359239324  0.022720124197147067  0.6491720858225446  1.0000
  C   C110      1.0  0.022883017288558984  0.522720124276548  0.8508279138007812  1.0000
  C   C111      1.0  0.5228830169432033  0.9772798759616548  0.3508279141589981  1.0000
  C   C112      1.0  0.9771169832470376  0.47727987588225385  0.1491720861807616  1.0000
  C   C113      1.0  0.6081151461773734  0.9927681175724579  0.7662331538144738  1.0000
  C   C114      1.0  0.8918848539903796  0.492768117493057  0.7337668467259774  1.0000
  C   C115      1.0  0.39188485436371123  0.007231882586343927  0.23376684672891745  1.0000
  C   C116      1.0  0.10811514526295694  0.5072318826657448  0.2662331532681424  1.0000
  C   C117      1.0  0.4460364954387912  0.986301873188804  0.7979776024256269  1.0000
  C   C118      1.0  0.05396350415990105  0.4863018731094032  0.702022397210276  1.0000
  C   C119      1.0  0.5539635038145453  0.013698126969997733  0.20202239756849297  1.0000
  C   C120      1.0  0.9460364963756955  0.5136981270493987  0.2979776027712667  1.0000
  C   C121      1.0  0.6248526146151832  0.010723033614799699  0.6902019195109871  1.0000
  C   C122      1.0  0.8751473855470815  0.5107230336942006  0.8097980804676155  1.0000
  C   C123      1.0  0.3751473846381534  0.9892769665440022  0.3097980804831327  1.0000
  C   C124      1.0  0.12485261498851491  0.4892769664646012  0.19020191951392726  1.0000
  N   N1        1.0  0.24245478255377212  0.08594291261300781  0.9804008296770479  1.0000
  N   N2        1.0  0.2575452170504084  0.5859429126924087  0.5195991705207034  1.0000
  N   N3        1.0  0.7575452166995644  0.9140570870356152  0.019599170317071764  1.0000
  N   N4        1.0  0.742454783485188  0.4140570874663931  0.4804008294608394  1.0000
  N   N5        1.0  0.30595963053606917  0.9980041431293577  0.7560674158122836  1.0000
  N   N6        1.0  0.19404036906262306  0.4980041435601357  0.7439325838236193  1.0000
  N   N7        1.0  0.6940403687172673  0.0019958565192652556  0.24393258418183614  1.0000
  N   N8        1.0  0.8059596301907135  0.5019958565986662  0.25606741617050055  1.0000
  O   O1        1.0  0.7051809068921623  0.4131691563246142  0.009702828682961441  1.0000
  O   O2        1.0  0.7948190932980783  0.9131691564040151  0.4902971716567982  1.0000
  O   O3        1.0  0.29481909364343417  0.5868308433240088  0.9902971712985814  1.0000
  O   O4        1.0  0.20518090723751806  0.08683084375478674  0.5097028283247446  1.0000
  O   O5        1.0  0.4419842455040998  0.4712101134454945  0.63346628110248  1.0000
  O   O6        1.0  0.05801575410008072  0.9712101135248954  0.8665337190952712  1.0000
  O   O7        1.0  0.5580157537492367  0.5287898867133074  0.3665337188916396  1.0000
  O   O8        1.0  0.9419842464355157  0.028789886633906397  0.1334662808862716  1.0000
  O   O9        1.0  0.5120791625471744  0.43781397780074394  0.10284189940273056  1.0000
  O   O10       1.0  0.987920837637578  0.9378139778801449  0.3971581003751806  1.0000
  O   O11       1.0  0.48792083798842195  0.5621860223580578  0.8971581005788123  1.0000
  O   O12       1.0  0.012079162898018534  0.062186022278656945  0.6028418996063621  1.0000
  O   O13       1.0  0.2688557190613649  0.4568613640203226  0.5341384859972831  1.0000
  O   O14       1.0  0.23114428054281563  0.9568613635895447  0.9658615142004683  1.0000
  O   O15       1.0  0.7311442801919716  0.5431386361384792  0.4658615139968367  1.0000
  O   O16       1.0  0.7688557199927808  0.043138636059078306  0.034138485781074486  1.0000
  S   S1        1.0  0.6554079744588189  0.3586630695013038  0.8808402292837353  1.0000
  S   S2        1.0  0.8445920257034457  0.8586630690705258  0.6191597706948674  1.0000
  S   S3        1.0  0.3445920260767775  0.6413369306574981  0.1191597706978075  1.0000
  S   S4        1.0  0.15540797483215074  0.14133693057809713  0.38084022928667544  1.0000
  S   S5        1.0  0.5651428813487387  0.37466784019065164  0.7221927700250259  1.0000
  S   S6        1.0  0.9348571188135261  0.8746678397598737  0.7778072299535768  1.0000
  S   S7        1.0  0.4348571179045979  0.6253321599681503  0.2778072299690939  1.0000
  S   S8        1.0  0.06514288172207038  0.1253321598887493  0.22219277002796597  1.0000
  Br  Br1       1.0  0.5870517927810819  0.1568120963041546  0.8465680785260544  1.0000
  Br  Br2       1.0  0.9129482060989228  0.6568120958733766  0.6534319214651253  1.0000
  Br  Br3       1.0  0.4129482064722545  0.8431879038546473  0.15343192146806542  1.0000
  Br  Br4       1.0  0.08705179315441375  0.34318790377524633  0.34656807852899446  1.0000
