data_image0
_chemical_formula_structural       H124C112N12O20
_chemical_formula_sum              "H124 C112 N12 O20"
_cell_length_a       8.855754058248774
_cell_length_b       12.448355308334179
_cell_length_c       22.085591091546082
_cell_angle_alpha    90.0
_cell_angle_beta     90.0
_cell_angle_gamma    90.0

_space_group_name_H-M_alt    "P 1"
_space_group_IT_number       1

loop_
  _space_group_symop_operation_xyz
  'x, y, z'

loop_
  _atom_site_type_symbol
  _atom_site_label
  _atom_site_symmetry_multiplicity
  _atom_site_fract_x
  _atom_site_fract_y
  _atom_site_fract_z
  _atom_site_occupancy
  H   H1        1.0  0.7068558011916903  0.4863545986630566  0.3440036025528055  1.0000
  H   H2        1.0  0.2068558010928153  0.013645401805512153  0.6559963973771904  1.0000
  H   H3        1.0  0.2931441990060598  0.9863545983283064  0.15599639718580052  1.0000
  H   H4        1.0  0.7931441991049348  0.513645401470762  0.8440036027441953  1.0000
  H   H5        1.0  0.4345401593911222  0.5152743853403358  0.3325542001369112  1.0000
  H   H6        1.0  0.9345401594899972  0.9847256144587325  0.6674457997930846  1.0000
  H   H7        1.0  0.5654598408066278  0.015274384871766997  0.16744580005447865  1.0000
  H   H8        1.0  0.06545984070775279  0.48472561479348275  0.8325542003283012  1.0000
  H   H9        1.0  0.7364861057681353  0.511723256785192  0.5628927841898987  1.0000
  H   H10       1.0  0.2364861056692603  0.9882767430138761  0.4371072157400971  1.0000
  H   H11       1.0  0.2635138944296148  0.011723257119942284  0.937107215931487  1.0000
  H   H12       1.0  0.7635138933992804  0.48827674254530745  0.0628927839985089  1.0000
  H   H13       1.0  0.6525864440213267  0.63960583971036  0.5717244445784071  1.0000
  H   H14       1.0  0.15258644392245163  0.8603941600887083  0.4282755553515888  1.0000
  H   H15       1.0  0.3474135561764234  0.1396058400451102  0.9282755555429786  1.0000
  H   H16       1.0  0.8474135562752985  0.3603941596201396  0.07172444438701722  1.0000
  H   H17       1.0  0.8174445001955634  0.626485740230981  0.5271317304455722  1.0000
  H   H18       1.0  0.31744450009668823  0.8735142603714063  0.4728682694844237  1.0000
  H   H19       1.0  0.18255550000218682  0.12648573976241223  0.9728682696758135  1.0000
  H   H20       1.0  0.6825555001010618  0.37351425990283754  0.027131730254182303  1.0000
  H   H21       1.0  0.5062592660671263  0.5270314878952423  0.5023312364162472  1.0000
  H   H22       1.0  0.006259265968251312  0.9729685119038259  0.49766876351374856  1.0000
  H   H23       1.0  0.4937407341306237  0.027031487426673523  0.9976687632523545  1.0000
  H   H24       1.0  0.9937407331002894  0.4729685122385762  0.002331236677641292  1.0000
  H   H25       1.0  0.9582633160521777  0.5939058314836404  0.20619924371157952  1.0000
  H   H26       1.0  0.45826331595330266  0.9060941683154279  0.7938007562184164  1.0000
  H   H27       1.0  0.0417366841455724  0.09390583181839066  0.29380075647981035  1.0000
  H   H28       1.0  0.5417366842444475  0.4060941686501781  0.7061992439029694  1.0000
  H   H29       1.0  0.8918082354199613  0.5176832915176782  0.2663658815204559  1.0000
  H   H30       1.0  0.3918082353210862  0.982316709084709  0.73363411840954  1.0000
  H   H31       1.0  0.10819176477778882  0.017683291049109456  0.23363411867093398  1.0000
  H   H32       1.0  0.6081917648766638  0.48231670861614034  0.7663658817118457  1.0000
  H   H33       1.0  0.2791569090265439  0.7669829630913432  0.2742842455468071  1.0000
  H   H34       1.0  0.779156909125419  0.7330170367077251  0.7257157543831888  1.0000
  H   H35       1.0  0.7208430911712062  0.2669829634260934  0.22571575419179893  1.0000
  H   H36       1.0  0.22084309107233116  0.23301703704247534  0.7742842457381969  1.0000
  H   H37       1.0  0.40583837201896217  0.7900702764657924  0.3661998280451649  1.0000
  H   H38       1.0  0.9058383721178374  0.7099297233332759  0.6338001723376149  1.0000
  H   H39       1.0  0.5941616281787879  0.29007027680054265  0.13380017214622505  1.0000
  H   H40       1.0  0.09416162807991287  0.2099297236680261  0.8661998277837708  1.0000
  H   H41       1.0  0.5280620994260941  0.8791587690843732  0.32981031794925286  1.0000
  H   H42       1.0  0.02806209932721902  0.6208412307146951  0.670189681980743  1.0000
  H   H43       1.0  0.47193790077165604  0.37915876861580444  0.170189682242137  1.0000
  H   H44       1.0  0.971937900870531  0.12084123104944533  0.8298103176878588  1.0000
  H   H45       1.0  0.7831542547796861  0.4449084768886741  0.4546321634942984  1.0000
  H   H46       1.0  0.2831542546808112  0.05509152357989472  0.5453678368884813  1.0000
  H   H47       1.0  0.21684574541806392  0.9449084765539238  0.04536783669709143  1.0000
  H   H48       1.0  0.716845745516939  0.5550915232451444  0.9546321632329045  1.0000
  H   H49       1.0  0.5974250826299738  0.42020174878025557  0.4272874242253019  1.0000
  H   H50       1.0  0.0974250825310988  0.07979825168831316  0.5727125757046939  1.0000
  H   H51       1.0  0.40257491756777625  0.9202017484455053  0.07271257551330405  1.0000
  H   H52       1.0  0.9025749176666513  0.579798251353563  0.9272874244166918  1.0000
  H   H53       1.0  0.9485239963474189  0.5319218359365809  0.3790648058862496  1.0000
  H   H54       1.0  0.44852399624854383  0.9680781638624874  0.6209351940437462  1.0000
  H   H55       1.0  0.05147600272112188  0.031921836271331175  0.12093519430514024  1.0000
  H   H56       1.0  0.5514760028199969  0.4680781641972376  0.8790648056248557  1.0000
  H   H57       1.0  0.8816069607000686  0.6132547554205032  0.4383105903697294  1.0000
  H   H58       1.0  0.38160696173040287  0.8867452443785651  0.5616894095602665  1.0000
  H   H59       1.0  0.11839303836847215  0.11325475575525343  0.061689409368876576  1.0000
  H   H60       1.0  0.6183930384673473  0.38674524471331534  0.9383105905611192  1.0000
  H   H61       1.0  0.9902176598763962  0.7379459810124335  0.38016261711980454  1.0000
  H   H62       1.0  0.4902176597775212  0.7620540187866348  0.6198373832629752  1.0000
  H   H63       1.0  0.009782340321353854  0.23794598054386473  0.11983738307158533  1.0000
  H   H64       1.0  0.5097823392910196  0.26205401912138504  0.8801626168584106  1.0000
  H   H65       1.0  0.7987324776043704  0.8829406951970123  0.4334970714759248  1.0000
  H   H66       1.0  0.29873247750549525  0.6170593046020558  0.5665029284540711  1.0000
  H   H67       1.0  0.2012675225933798  0.3829406955317626  0.06650292826268119  1.0000
  H   H68       1.0  0.7012675226922548  0.11705930413348715  0.9334970716673148  1.0000
  H   H69       1.0  0.6285787334862801  0.7989791160074909  0.5045059995820104  1.0000
  H   H70       1.0  0.12857873338740514  0.7010208845948963  0.4954940003479855  1.0000
  H   H71       1.0  0.37142126558226063  0.2989791155389222  0.9954940005393754  1.0000
  H   H72       1.0  0.8714212656811356  0.2010208841263276  0.004505999390620491  1.0000
  H   H73       1.0  0.7583961146418877  0.8669384222006243  0.2679809349664854  1.0000
  H   H74       1.0  0.25839611454301276  0.633061577598444  0.7320190649635104  1.0000
  H   H75       1.0  0.24160388555586232  0.36693842253537456  0.2320190647721206  1.0000
  H   H76       1.0  0.7416038856547374  0.13306157793319418  0.7679809351578752  1.0000
  H   H77       1.0  0.9907354305789067  0.7539760584851098  0.26859780910598785  1.0000
  H   H78       1.0  0.4907354304800317  0.7460239413139583  0.731402190824008  1.0000
  H   H79       1.0  0.009264569618843317  0.25397605881986013  0.23140219108540205  1.0000
  H   H80       1.0  0.5092645697177184  0.2460239416487086  0.7685978088445938  1.0000
  H   H81       1.0  0.08525581164900849  0.6428703713688348  0.30014285660379647  1.0000
  H   H82       1.0  0.5852558106186742  0.8571296284302334  0.6998571433261994  1.0000
  H   H83       1.0  0.9147441885487417  0.14287037170358502  0.19985714358759343  1.0000
  H   H84       1.0  0.41474418844986655  0.3571296287649837  0.8001428563424025  1.0000
  H   H85       1.0  0.6425819182161554  0.5174735842964959  0.16702610696310613  1.0000
  H   H86       1.0  0.14258191811728038  0.9825264155025724  0.8329738929668897  1.0000
  H   H87       1.0  0.3574180819815947  0.017473584631246188  0.33297389322828375  1.0000
  H   H88       1.0  0.8574180820804697  0.4825264158373226  0.6670261071544961  1.0000
  H   H89       1.0  0.7402752207073363  0.6264612703317489  0.13421366164542597  1.0000
  H   H90       1.0  0.24027522060846127  0.8735387302706383  0.86578633828457  1.0000
  H   H91       1.0  0.25972477949041384  0.12646126986318015  0.36578633809318  1.0000
  H   H92       1.0  0.7597247795892889  0.3735387298020696  0.6342136618368158  1.0000
  H   H93       1.0  0.5364576103572889  0.7490323475710426  0.15122790266992076  1.0000
  H   H94       1.0  0.036457610258413785  0.7509676522280258  0.8487720972600752  1.0000
  H   H95       1.0  0.4635423898404613  0.2490323479057928  0.34877209752146915  1.0000
  H   H96       1.0  0.9635423899393364  0.250967652562776  0.6512279024085268  1.0000
  H   H97       1.0  0.4252349258155304  0.63067467272113  0.14392058817102218  1.0000
  H   H98       1.0  0.9252349259144056  0.8693253270779383  0.8560794122117575  1.0000
  H   H99       1.0  0.5747650743822197  0.13067467305588024  0.3560794120203677  1.0000
  H   H100      1.0  0.07476507428334461  0.3693253266093695  0.6439205879096281  1.0000
  H   H101      1.0  0.4040721745955558  0.6092536332829744  0.25097202185010553  1.0000
  H   H102      1.0  0.9040721746944308  0.8907463665160938  0.7490279780798903  1.0000
  H   H103      1.0  0.5959278256021944  0.10925363361772462  0.24902797788850045  1.0000
  H   H104      1.0  0.09592782550331928  0.39074636604752516  0.7509720220414955  1.0000
  H   H105      1.0  0.7213354569224817  0.8795353730520364  0.054535748443746236  1.0000
  H   H106      1.0  0.22133545682360656  0.620464626747032  0.9454642514862497  1.0000
  H   H107      1.0  0.2786645421460592  0.37953537258346765  0.44546425174764365  1.0000
  H   H108      1.0  0.7786645422449342  0.12046462708178214  0.5545357486351361  1.0000
  H   H109      1.0  0.8701794843570759  0.8999206644190096  0.15082932334444507  1.0000
  H   H110      1.0  0.37017948425820085  0.6000793353800588  0.8491706765855508  1.0000
  H   H111      1.0  0.1298205147114649  0.3999206647537598  0.3491706768469448  1.0000
  H   H112      1.0  0.62982051481034  0.10007933491148994  0.6508293230830511  1.0000
  H   H113      1.0  0.14352489371767227  0.631849243950649  0.0919379459478101  1.0000
  H   H114      1.0  0.6435248938165473  0.8681507566517382  0.9080620539821858  1.0000
  H   H115      1.0  0.8564751064800779  0.1318492434820803  0.4080620537907959  1.0000
  H   H116      1.0  0.3564751063812028  0.3681507561831695  0.5919379461392  1.0000
  H   H117      1.0  0.09203287429158466  0.775614553155941  0.16812090356147544  1.0000
  H   H118      1.0  0.5920328743904597  0.7243854466431273  0.8318790963685203  1.0000
  H   H119      1.0  0.9079671259061655  0.2756145534906912  0.33187909662991444  1.0000
  H   H120      1.0  0.40796712580729044  0.22438544697787757  0.6681209037528654  1.0000
  H   H121      1.0  0.7977152248734627  0.7386173219079175  0.9810745091759814  1.0000
  H   H122      1.0  0.2977152259037969  0.7613826778911508  0.018925490754014482  1.0000
  H   H123      1.0  0.20228477419507812  0.2386173222426677  0.5189254909454043  1.0000
  H   H124      1.0  0.7022847742939532  0.2613826774225821  0.4810745089845915  1.0000
  C   C1        1.0  0.7108333280932183  0.5871269560491079  0.5393189695773802  1.0000
  C   C2        1.0  0.21083332912355257  0.9128730437499605  0.46068103080539957  1.0000
  C   C3        1.0  0.28916667097532245  0.08712695558053908  0.9606810305440057  1.0000
  C   C4        1.0  0.7891666710741975  0.41287304408471065  0.03931896938599028  1.0000
  C   C5        1.0  0.610425531743933  0.5633475118841571  0.48483166946338724  1.0000
  C   C6        1.0  0.11042553164505792  0.9366524879149112  0.5151683304666086  1.0000
  C   C7        1.0  0.38957446845381716  0.06334751221890737  0.015168330275218751  1.0000
  C   C8        1.0  0.8895744685526922  0.43665248824966135  0.9848316696547772  1.0000
  C   C9        1.0  0.5617976930339272  0.6627211415211425  0.44533337365667386  1.0000
  C   C10       1.0  0.06179769293505218  0.8372788590812449  0.554666626273322  1.0000
  C   C11       1.0  0.43820230716382286  0.16272114105257365  0.05466662608193209  1.0000
  C   C12       1.0  0.9382023072626978  0.33727885861267615  0.9453333738480638  1.0000
  C   C13       1.0  0.5862460628255804  0.6261832520783911  0.37911890631738804  1.0000
  C   C14       1.0  0.08624606272670544  0.8738167477206772  0.6208810940653917  1.0000
  C   C15       1.0  0.41375393737216964  0.12618325160982238  0.12088109387400181  1.0000
  C   C16       1.0  0.9137539374710447  0.3738167480554274  0.8791189060559941  1.0000
  C   C17       1.0  0.6191969304852571  0.7161226651388802  0.3323326815015385  1.0000
  C   C18       1.0  0.11919693151559144  0.783877334660188  0.6676673184284574  1.0000
  C   C19       1.0  0.3808030685832836  0.2161226646703115  0.1676673182370675  1.0000
  C   C20       1.0  0.8808030686821586  0.2838773349949383  0.8323326816929284  1.0000
  C   C21       1.0  0.6255795704759591  0.6706663421159377  0.2692094825696503  1.0000
  C   C22       1.0  0.12557957037708412  0.8293336576831306  0.7307905173603456  1.0000
  C   C23       1.0  0.3744204297217909  0.17066634164736894  0.23079051762173955  1.0000
  C   C24       1.0  0.874420429820666  0.3293336580178808  0.7692094823082564  1.0000
  C   C25       1.0  0.732245692162134  0.6289042026908245  0.23289955467702714  1.0000
  C   C26       1.0  0.23224569206325887  0.8710957971082438  0.7671004452529687  1.0000
  C   C27       1.0  0.26775430690640684  0.12890420302557473  0.26710044551436274  1.0000
  C   C28       1.0  0.7677543070052819  0.37109579744299404  0.732899554868417  1.0000
  C   C29       1.0  0.8913168374010714  0.6001102567339617  0.24787744721469265  1.0000
  C   C30       1.0  0.3913168373021963  0.8998897430651066  0.7521225531680872  1.0000
  C   C31       1.0  0.10868316279667875  0.10011025706871196  0.2521225529766972  1.0000
  C   C32       1.0  0.6086831628955538  0.3998897433998567  0.7478774469532986  1.0000
  C   C33       1.0  0.4150362031086964  0.8752852967415876  0.22458279198597517  1.0000
  C   C34       1.0  0.9150362032075715  0.6247147030574807  0.7754172079440207  1.0000
  C   C35       1.0  0.5849637970890537  0.3752852962730189  0.2754172082054147  1.0000
  C   C36       1.0  0.08496379699017871  0.12471470339223088  0.7245827917245812  1.0000
  C   C37       1.0  0.40010263346232433  0.7800597371685593  0.26699718859945626  1.0000
  C   C38       1.0  0.9001026335611994  0.719940263433828  0.7330028113305396  1.0000
  C   C39       1.0  0.5998973656062165  0.28005973669999057  0.23300281159193365  1.0000
  C   C40       1.0  0.09989736663655076  0.21994026296525923  0.7669971887908461  1.0000
  C   C41       1.0  0.4833452715427428  0.7969305618516719  0.32788271728764795  1.0000
  C   C42       1.0  0.9833452716416179  0.7030694379473964  0.6721172826423479  1.0000
  C   C43       1.0  0.516654727525798  0.29693056138310314  0.17211728290374192  1.0000
  C   C44       1.0  0.01665472855613226  0.20306943828214663  0.8278827170262539  1.0000
  C   C45       1.0  0.6785089547968118  0.4831338294122659  0.43919718425435017  1.0000
  C   C46       1.0  0.1785089546979368  0.016866170252983887  0.5608028156756456  1.0000
  C   C47       1.0  0.3214910454009383  0.9831338298808346  0.06080281593703969  1.0000
  C   C48       1.0  0.8214910454998133  0.5168661707215526  0.9391971844457401  1.0000
  C   C49       1.0  0.8677739184549654  0.5954554249457652  0.3901490648035355  1.0000
  C   C50       1.0  0.36777391835609036  0.904544575656622  0.6098509355792442  1.0000
  C   C51       1.0  0.13222608174278472  0.09545542447719639  0.10985093538785434  1.0000
  C   C52       1.0  0.6322260818416597  0.40454457518805337  0.8901490645421415  1.0000
  C   C53       1.0  0.9015191261509315  0.6971564198677535  0.3538783719939313  1.0000
  C   C54       1.0  0.4015191260520565  0.8028435799313148  0.6461216279360645  1.0000
  C   C55       1.0  0.09848087404681857  0.19715641939918466  0.14612162819745858  1.0000
  C   C56       1.0  0.5984808741456936  0.3028435802660651  0.8538783721853213  1.0000
  C   C57       1.0  0.7620098396606163  0.7741691839039921  0.35548931733166417  1.0000
  C   C58       1.0  0.26200984069095057  0.7258308158950763  0.6445106830511156  1.0000
  C   C59       1.0  0.2379901594079245  0.2741691842387423  0.14451068285972574  1.0000
  C   C60       1.0  0.7379901595067996  0.2258308154265074  0.8554893170702702  1.0000
  C   C61       1.0  0.7345565117564223  0.8122471547089106  0.4196355932510027  1.0000
  C   C62       1.0  0.23455651278675657  0.6877528450901577  0.5803644066789931  1.0000
  C   C63       1.0  0.2654434873121185  0.31224715504366074  0.08036440648760332  1.0000
  C   C64       1.0  0.7654434874109936  0.187752845424908  0.9196355934423927  1.0000
  C   C65       1.0  0.6400513172246876  0.7656722517888568  0.4590761903529488  1.0000
  C   C66       1.0  0.1400513171258125  0.7343277488135304  0.540923809577047  1.0000
  C   C67       1.0  0.35994868297306254  0.26567225132028804  0.04092380938565717  1.0000
  C   C68       1.0  0.8599486830719376  0.23432774834496173  0.9590761905443386  1.0000
  C   C69       1.0  0.7992658099404915  0.8713799615550628  0.31542865215260674  1.0000
  C   C70       1.0  0.2992658098416164  0.6286200382440055  0.684571347777389  1.0000
  C   C71       1.0  0.2007341902572587  0.3713799618898131  0.1845713480387831  1.0000
  C   C72       1.0  0.7007341903561337  0.12862003857875565  0.8154286518912127  1.0000
  C   C73       1.0  0.972365700691425  0.6762366217458561  0.29128164165198506  1.0000
  C   C74       1.0  0.4723657017217593  0.8237633780532122  0.7087183587307947  1.0000
  C   C75       1.0  0.02763429837711572  0.1762366220806063  0.2087183585394048  1.0000
  C   C76       1.0  0.5276342984759907  0.32376337838796243  0.7912816413905911  1.0000
  C   C77       1.0  0.6637324581665659  0.604536710561409  0.17143932368870732  1.0000
  C   C78       1.0  0.1637324580676908  0.8954632900409782  0.8285606762412885  1.0000
  C   C79       1.0  0.33626754203118425  0.10453671009284032  0.32856067650268256  1.0000
  C   C80       1.0  0.8362675421300593  0.3954632895724095  0.6714393238800972  1.0000
  C   C81       1.0  0.5144213107134175  0.6692601804530969  0.17077107759382923  1.0000
  C   C82       1.0  0.014421310614542401  0.8307398193459714  0.8292289223361666  1.0000
  C   C83       1.0  0.48557868948433264  0.16926017998452816  0.3292289221447767  1.0000
  C   C84       1.0  0.9855786895832076  0.3307398196807216  0.670771077785219  1.0000
  C   C85       1.0  0.4743461485458967  0.6788685557795887  0.23844297434338432  1.0000
  C   C86       1.0  0.9743461486447718  0.8211314448227987  0.7615570255866114  1.0000
  C   C87       1.0  0.5256538516518535  0.1788685553110199  0.26155702584800555  1.0000
  C   C88       1.0  0.025653851552978394  0.3211314443542299  0.7384429745347743  1.0000
  C   C89       1.0  0.33538639177015916  0.6060354796387593  0.4060539902612227  1.0000
  C   C90       1.0  0.8353863918690342  0.893964520963628  0.5939460096687732  1.0000
  C   C91       1.0  0.6646136072983817  0.10603547917019056  0.09394600947738328  1.0000
  C   C92       1.0  0.1646136071995066  0.3939645204950592  0.9060539904526125  1.0000
  C   C93       1.0  0.8168617999572709  0.8273613240380937  0.0646651300424861  1.0000
  C   C94       1.0  0.31686179985839585  0.6726386765642934  0.9353348698875098  1.0000
  C   C95       1.0  0.1831382002404792  0.327361323569525  0.43533487014890376  1.0000
  C   C96       1.0  0.6831382003393542  0.17263867609572475  0.5646651297810921  1.0000
  C   C97       1.0  0.9000199607594046  0.8379851017761424  0.11802632536277395  1.0000
  C   C98       1.0  0.4000199606605296  0.6620148980229258  0.8819736745672219  1.0000
  C   C99       1.0  0.09998003943834544  0.33798510130757364  0.38197367482861594  1.0000
  C   C100      1.0  0.5999800395372206  0.1620148983576761  0.6180263255541638  1.0000
  C   C101      1.0  0.05251202855694035  0.6898023543922355  0.08455436271818034  1.0000
  C   C102      1.0  0.5525120286558154  0.8101976454068328  0.9154456376645994  1.0000
  C   C103      1.0  0.9474879705116005  0.1898023539236668  0.4154456374732095  1.0000
  C   C104      1.0  0.4474879715419347  0.310197645741583  0.5845543624567863  1.0000
  C   C105      1.0  0.021039613202271466  0.7682646167399435  0.12801846272895354  1.0000
  C   C106      1.0  0.5210396133011466  0.7317353830591248  0.8719815372010423  1.0000
  C   C107      1.0  0.9789603869954786  0.26826461707469373  0.37198153746243634  1.0000
  C   C108      1.0  0.47896038689660364  0.231735383393875  0.6280184624675594  1.0000
  C   C109      1.0  0.8594856654708356  0.7478650262952535  0.023559116341657107  1.0000
  C   C110      1.0  0.3594856653719605  0.7521349735038148  0.9764408835883387  1.0000
  C   C111      1.0  0.14051433359770524  0.2478650258266848  0.4764408833969489  1.0000
  C   C112      1.0  0.6405143336965803  0.252134973838565  0.523559116533047  1.0000
  N   N1        1.0  0.7130784796488309  0.546557724412388  0.38317856311481563  1.0000
  N   N2        1.0  0.21307847954995587  0.9534422753866802  0.6168214368151803  1.0000
  N   N3        1.0  0.28692151941970984  0.04655772474713825  0.11682143662379037  1.0000
  N   N4        1.0  0.7869215195185849  0.45344227491811157  0.8831785633062056  1.0000
  N   N5        1.0  0.4456450172443503  0.5714558753988476  0.368146401710402  1.0000
  N   N6        1.0  0.9456450173432254  0.9285441244002207  0.6318535982195939  1.0000
  N   N7        1.0  0.5543549829533998  0.07145587573359782  0.13185359802820398  1.0000
  N   N8        1.0  0.05435498285452474  0.42854412473497094  0.8681464019017918  1.0000
  N   N9        1.0  0.9746249605882562  0.6793355403615685  0.03266050145590666  1.0000
  N   N10       1.0  0.4746249604893811  0.8206644594374998  0.9673394984740892  1.0000
  N   N11       1.0  0.025375038480284696  0.17933554069631877  0.4673394987354832  1.0000
  N   N12       1.0  0.5253750385791598  0.32066445977225  0.5326605011945127  1.0000
  O   O1        1.0  0.5413535582025899  0.9220088674939904  0.2194201916495212  1.0000
  O   O2        1.0  0.041353559232924254  0.5779911331083969  0.7805798082804746  1.0000
  O   O3        1.0  0.4586464408659508  0.42200886702542156  0.2805798080890847  1.0000
  O   O4        1.0  0.9586464409648259  0.07799113263982815  0.7194201918409111  1.0000
  O   O5        1.0  0.8694521662814344  0.9493788807656949  0.3339722215007129  1.0000
  O   O6        1.0  0.36945216731176866  0.5506211190333734  0.666027778429283  1.0000
  O   O7        1.0  0.13054783278710644  0.4493788811004451  0.16602777869067697  1.0000
  O   O8        1.0  0.6305478328859815  0.05062111936812364  0.8339722212393189  1.0000
  O   O9        1.0  0.3974623681787349  0.6726016282965844  0.44967371707798687  1.0000
  O   O10       1.0  0.89746236827761  0.8273983723058028  0.550326282852009  1.0000
  O   O11       1.0  0.6025376320190152  0.17260162782801572  0.05032628311340303  1.0000
  O   O12       1.0  0.10253763192014013  0.3273983718372341  0.9496737168165928  1.0000
  O   O13       1.0  0.19968917252764143  0.5870753580681625  0.40485345232270453  1.0000
  O   O14       1.0  0.6996891726265165  0.9129246417309058  0.5951465476072914  1.0000
  O   O15       1.0  0.8003108276701086  0.08707535840291274  0.09514654786868534  1.0000
  O   O16       1.0  0.3003108275712336  0.412924642065656  0.9048534525140944  1.0000
  O   O17       1.0  0.29465287685688096  0.8986418665693579  0.19492692870003808  1.0000
  O   O18       1.0  0.794652876955756  0.6013581332297105  0.8050730712299577  1.0000
  O   O19       1.0  0.7053471222116597  0.39864186690410797  0.30507307103856784  1.0000
  O   O20       1.0  0.20534712324199406  0.10135813356446077  0.6949269288914279  1.0000
