data_image0
_chemical_formula_structural       H90C52O8P2
_chemical_formula_sum              "H90 C52 O8 P2"
_cell_length_a       9.420245133835133
_cell_length_b       10.491271088575127
_cell_length_c       12.65978132631343
_cell_angle_alpha    101.59071610889481
_cell_angle_beta     93.29359197295365
_cell_angle_gamma    97.18867882702811

_space_group_name_H-M_alt    "P 1"
_space_group_IT_number       1

loop_
  _space_group_symop_operation_xyz
  'x, y, z'

loop_
  _atom_site_type_symbol
  _atom_site_label
  _atom_site_symmetry_multiplicity
  _atom_site_fract_x
  _atom_site_fract_y
  _atom_site_fract_z
  _atom_site_occupancy
  H   H1        1.0  0.9691825190950838  0.06789525064778072  0.19695998974181755  1.0000
  H   H2        1.0  0.03081748043846317  0.9321047498716574  0.8030400108663657  1.0000
  H   H3        1.0  0.9938265934820908  0.29193670668755634  0.3347432217120978  1.0000
  H   H4        1.0  0.006173405917115547  0.7080632928713056  0.6652567788966686  1.0000
  H   H5        1.0  0.95693264912534  0.19745679185382733  0.43189054498247187  1.0000
  H   H6        1.0  0.04306735137858038  0.8025432084580357  0.5681094548166127  1.0000
  H   H7        1.0  0.006035016867133086  0.9675932715801727  0.40694765045137143  1.0000
  H   H8        1.0  0.9939649825320732  0.032406727978689556  0.593052350157395  1.0000
  H   H9        1.0  0.03125546627877272  0.874247231723526  0.279199010195963  1.0000
  H   H10       1.0  0.9687445331636496  0.1257527685887586  0.7208009896029467  1.0000
  H   H11       1.0  0.8618228234794406  0.9257039467260232  0.303762673596124  1.0000
  H   H12       1.0  0.1381771768901391  0.07429605262526377  0.6962373262035437  1.0000
  H   H13       1.0  0.4284300129090524  0.1913739789510183  0.37438891081243875  1.0000
  H   H14       1.0  0.571569987594868  0.8086260213608447  0.6256110889866459  1.0000
  H   H15       1.0  0.18756413938763097  0.08454499720282137  0.49915647621882636  1.0000
  H   H16       1.0  0.8124358600547913  0.9154550031094633  0.5008435235800833  1.0000
  H   H17       1.0  0.3082308377923686  0.9873665955672531  0.43183898383107056  1.0000
  H   H18       1.0  0.6917691625772112  0.012633403784033964  0.5681610159685971  1.0000
  H   H19       1.0  0.390806019159674  0.0632203781877773  0.6262150497441465  1.0000
  H   H20       1.0  0.6091939812099058  0.9367796211635097  0.37378495005552115  1.0000
  H   H21       1.0  0.5147361129170862  0.13361260452671092  0.5473672653568321  1.0000
  H   H22       1.0  0.4852638863909954  0.8663873948249978  0.4526327344426608  1.0000
  H   H23       1.0  0.47107221301944946  0.3047241931911234  0.7010407294278581  1.0000
  H   H24       1.0  0.5289277873501305  0.6952758061601636  0.2989592703718097  1.0000
  H   H25       1.0  0.28338960477325975  0.2716237093584573  0.665676080013729  1.0000
  H   H26       1.0  0.7166103946259466  0.7283762902004047  0.33432392059503746  1.0000
  H   H27       1.0  0.511723477286798  0.3766219269404712  0.5292076341953202  1.0000
  H   H28       1.0  0.4882765230827818  0.6233780724108158  0.4707923656043475  1.0000
  H   H29       1.0  0.38717025414093076  0.4682203726879474  0.5981798556643748  1.0000
  H   H30       1.0  0.6128297451671509  0.5317796266637612  0.40182014413511796  1.0000
  H   H31       1.0  0.30350216812773284  0.39573629636657653  0.40537366486355964  1.0000
  H   H32       1.0  0.6964978313146895  0.6042637039457082  0.5946263349353501  1.0000
  H   H33       1.0  0.18422687743563518  0.32065486927477177  0.48385945005278946  1.0000
  H   H34       1.0  0.8157731230682852  0.6793451310370915  0.5161405497462952  1.0000
  H   H35       1.0  0.16969603897766844  0.3376285699655885  0.24701324153338441  1.0000
  H   H36       1.0  0.830303961483036  0.6623714295928519  0.7529867590755568  1.0000
  H   H37       1.0  0.43926711911150224  0.3497181906900776  0.2751960635506572  1.0000
  H   H38       1.0  0.5607328813924183  0.6502818096217855  0.7248039362484275  1.0000
  H   H39       1.0  0.4399660146487172  0.25628269183249774  0.14398851723582504  1.0000
  H   H40       1.0  0.5600339846593645  0.7437173075192111  0.8560114825636679  1.0000
  H   H41       1.0  0.3340849384662428  0.5244127365938719  0.20227127770588577  1.0000
  H   H42       1.0  0.6659150621288022  0.4755872639251446  0.7977287229024724  1.0000
  H   H43       1.0  0.4951689239526439  0.49317614745316596  0.14403388314650362  1.0000
  H   H44       1.0  0.5048310765512766  0.5068238528586971  0.8559661166525809  1.0000
  H   H45       1.0  0.35995616863210145  0.3535562858585814  0.9786725018903222  1.0000
  H   H46       1.0  0.6400438317374783  0.6464437134927056  0.021327497909345634  1.0000
  H   H47       1.0  0.30348000200101527  0.5099102680400126  0.003771639438774274  1.0000
  H   H48       1.0  0.6965199973070664  0.4900897313116961  0.9962283603607186  1.0000
  H   H49       1.0  0.0949641277494865  0.32793947407192364  0.9536630867644849  1.0000
  H   H50       1.0  0.9050358716929359  0.6720605262403611  0.046336913034424894  1.0000
  H   H51       1.0  0.0871423172020152  0.4223254905316739  0.08485399043978341  1.0000
  H   H52       1.0  0.9128576833019052  0.5776745097801893  0.9151460093593012  1.0000
  H   H53       1.0  0.20003283737151234  0.15754968294535143  0.029399085237244903  1.0000
  H   H54       1.0  0.799967163132408  0.8424503173665115  0.9706009145618398  1.0000
  H   H55       1.0  0.03495367491504421  0.18422201534127647  0.08407710307848722  1.0000
  H   H56       1.0  0.9650463256800008  0.8157779851777399  0.915922897529871  1.0000
  H   H57       1.0  0.26601706074111126  0.9158666209609757  0.25649050229755405  1.0000
  H   H58       1.0  0.7339829397628093  0.0841333793508873  0.7435094975015306  1.0000
  H   H59       1.0  0.43375326694455346  0.06030930842348856  0.10505911734231223  1.0000
  H   H60       1.0  0.5662467323635283  0.9396906909282201  0.8949408824571806  1.0000
  H   H61       1.0  0.5000256306543014  0.058680622163466825  0.2372730907033006  1.0000
  H   H62       1.0  0.4999743697152785  0.9413193771878201  0.7627269090963671  1.0000
  H   H63       1.0  0.5909104780915141  0.8902057134344528  0.10475221331801125  1.0000
  H   H64       1.0  0.4090895212165676  0.1097942859172561  0.8952477864814815  1.0000
  H   H65       1.0  0.480595102320534  0.8143580224086219  0.189376653239002  1.0000
  H   H66       1.0  0.5194048981833865  0.18564197790324113  0.8106233465600826  1.0000
  H   H67       1.0  0.38625499715005507  0.8432552942362458  0.9596759004730777  1.0000
  H   H68       1.0  0.6137450022923673  0.15674470607603902  0.040324099325832016  1.0000
  H   H69       1.0  0.4169529223142847  0.6957907584383852  0.9980104305391291  1.0000
  H   H70       1.0  0.5830470771281377  0.3042092418738995  0.001989569259780723  1.0000
  H   H71       1.0  0.21485370075997068  0.7135581223134105  0.11716387261064272  1.0000
  H   H72       1.0  0.785146298548111  0.2864418770382982  0.8828361271888502  1.0000
  H   H73       1.0  0.15590565570998113  0.7179505423157213  0.982553049400088  1.0000
  H   H74       1.0  0.8440943435981005  0.28204945703598744  0.01744695039940482  1.0000
  H   H75       1.0  0.06051354689866296  0.8900862774078933  0.11235175167681459  1.0000
  H   H76       1.0  0.9394864534709169  0.10991372194339374  0.8876482481228533  1.0000
  H   H77       1.0  0.18029888490635387  0.9611136570167135  0.030993710414011253  1.0000
  H   H78       1.0  0.8197011156886912  0.03888634350230302  0.9690062901943469  1.0000
  H   H79       1.0  0.9401308787868454  0.36914963564546766  0.7873990620130089  1.0000
  H   H80       1.0  0.05986912180819975  0.6308503648735488  0.21260093859534923  1.0000
  H   H81       1.0  0.07982396204207944  0.49957021458593087  0.6147216532404909  1.0000
  H   H82       1.0  0.9201760372660022  0.5004297847657778  0.38527834655900195  1.0000
  H   H83       1.0  0.7676041077086749  0.30801217278439036  0.46424667932637603  1.0000
  H   H84       1.0  0.2323958926609048  0.6919878265668966  0.5357533204732917  1.0000
  H   H85       1.0  0.16774892570388755  0.4999961657338109  0.8556823050154891  1.0000
  H   H86       1.0  0.832251074800033  0.5000038345780522  0.14431769478359557  1.0000
  H   H87       1.0  0.20296131747388169  0.6409667283459033  0.7974062837115524  1.0000
  H   H88       1.0  0.7970386818342  0.35903327100580545  0.20259371608794036  1.0000
  H   H89       1.0  0.2904917527563088  0.5048338324650257  0.7538829273149235  1.0000
  H   H90       1.0  0.7095082477043956  0.49516616709341477  0.24611707329401783  1.0000
  C   C1        1.0  0.01704961282848158  0.0835665645285082  0.28108900684321836  1.0000
  C   C2        1.0  0.9829503875410983  0.9164334348227787  0.7189109929564493  1.0000
  C   C3        1.0  0.9455523702408289  0.19438324052669873  0.3446661267477636  1.0000
  C   C4        1.0  0.05444762929271786  0.8056167599927394  0.6553338738604197  1.0000
  C   C5        1.0  0.7855001021291887  0.1805655541976564  0.30357205542625665  1.0000
  C   C6        1.0  0.2144998983747317  0.8194344461142067  0.696427944372828  1.0000
  C   C7        1.0  0.9782403940352984  0.9552416187792421  0.31991156426321193  1.0000
  C   C8        1.0  0.02175960540712384  0.04475838153304263  0.6800884355356978  1.0000
  C   C9        1.0  0.3165231287362691  0.18549370688865424  0.3973725890217711  1.0000
  C   C10       1.0  0.6834768707972779  0.8145062936307839  0.6026274115864122  1.0000
  C   C11       1.0  0.29715286619427533  0.08774021801497466  0.47296909841075796  1.0000
  C   C12       1.0  0.7028471331138063  0.9122597813367341  0.527030901388735  1.0000
  C   C13       1.0  0.40493025350945333  0.133490553226217  0.5724926871740601  1.0000
  C   C14       1.0  0.595069745889753  0.866509446332645  0.4275073134347064  1.0000
  C   C15       1.0  0.38920790465763455  0.27228535132834286  0.632318751611661  1.0000
  C   C16       1.0  0.6107920959374105  0.7277146491906735  0.3676812489966971  1.0000
  C   C17       1.0  0.4025470945022716  0.36891889702676184  0.5564216627830293  1.0000
  C   C18       1.0  0.59745290480581  0.6310811023249469  0.44357833701646354  1.0000
  C   C19       1.0  0.29361086577686196  0.3235859630379855  0.45733106933376166  1.0000
  C   C20       1.0  0.7063891348181831  0.6764140374810309  0.5426689312745965  1.0000
  C   C21       1.0  0.2250041531477134  0.2633791791443625  0.1967604224188389  1.0000
  C   C22       1.0  0.7749958461603682  0.7366208202073463  0.803239577380654  1.0000
  C   C23       1.0  0.38144008747020525  0.3263136065694478  0.19442302302488054  1.0000
  C   C24       1.0  0.6185599119290011  0.6736863929894142  0.8055769775838859  1.0000
  C   C25       1.0  0.3833737840950303  0.4500006991251803  0.14750878816149993  1.0000
  C   C26       1.0  0.61662621640889  0.5499993011866827  0.8524912116375847  1.0000
  C   C27       1.0  0.30298474453415414  0.41959935974106394  0.03498445171472725  1.0000
  C   C28       1.0  0.6970152547739276  0.5804006396106448  0.9650155480847656  1.0000
  C   C29       1.0  0.1491426147631898  0.35346384060830477  0.03595888107388555  1.0000
  C   C30       1.0  0.8508573846792326  0.64653615970398  0.9640411187250242  1.0000
  C   C31       1.0  0.14626545719203407  0.2295540116012493  0.08267728720750125  1.0000
  C   C32       1.0  0.8537345433118863  0.7704459887106136  0.9173227125915834  1.0000
  C   C33       1.0  0.2711328947259866  0.9793352054204502  0.19636590510142368  1.0000
  C   C34       1.0  0.7288671056435931  0.02066479393083677  0.803634094698244  1.0000
  C   C35       1.0  0.42743618764241775  0.002163753393189799  0.16837079280829173  1.0000
  C   C36       1.0  0.5725638129526273  0.9978362471258266  0.8316292078000664  1.0000
  C   C37       1.0  0.4792419819446952  0.8707168053508919  0.12485211725788241  1.0000
  C   C38       1.0  0.5207580184248847  0.12928319400039512  0.8751478825417853  1.0000
  C   C39       1.0  0.3812207949740162  0.7915379862153032  0.027205995504717417  1.0000
  C   C40       1.0  0.6187792044251901  0.20846201334355885  0.972794005104049  1.0000
  C   C41       1.0  0.22507827753709145  0.7722996345656395  0.054275319985820726  1.0000
  C   C42       1.0  0.7749217217709902  0.22770036478606928  0.945724679813672  1.0000
  C   C43       1.0  0.17375623737201243  0.9046874006882908  0.09542406910821262  1.0000
  C   C44       1.0  0.8262437631319081  0.09531259962357232  0.904575930690872  1.0000
  C   C45       1.0  0.8357759381584959  0.3314310223981571  0.6247205751139836  1.0000
  C   C46       1.0  0.16422406234542447  0.6685689779137061  0.37527942468510106  1.0000
  C   C47       1.0  0.9517049518145477  0.39686466031937234  0.7093422598966204  1.0000
  C   C48       1.0  0.048295047627874656  0.6031353399929125  0.2906577399022894  1.0000
  C   C49       1.0  0.06905337394125587  0.4761308536056181  0.6945079935909689  1.0000
  C   C50       1.0  0.9309466264283239  0.5238691457456689  0.3054920062086987  1.0000
  C   C51       1.0  0.18752459484923034  0.5329246078628924  0.7803103059626155  1.0000
  C   C52       1.0  0.8124754055203494  0.4670753914883946  0.2196896938370522  1.0000
  O   O1        1.0  0.7482718292566988  0.12241956964311511  0.2079392782170245  1.0000
  O   O2        1.0  0.25172817124722163  0.8775804306687479  0.7920607215820601  1.0000
  O   O3        1.0  0.7012711001156364  0.23555698010489332  0.370355891215148  1.0000
  O   O4        1.0  0.2987288993267861  0.7644430202073915  0.6296441085837617  1.0000
  O   O5        1.0  0.8344675431376763  0.3757067365964433  0.5342626799800593  1.0000
  O   O6        1.0  0.1655324573662441  0.6242932637154198  0.46573731981902533  1.0000
  O   O7        1.0  0.7487850694101537  0.23948928316015097  0.6416646795314074  1.0000
  O   O8        1.0  0.2512149310937669  0.760510717151712  0.3583353202676772  1.0000
  P   P1        1.0  0.20826495992907784  0.1275734553151463  0.2684548712770569  1.0000
  P   P2        1.0  0.7917350395133445  0.8724265449971385  0.7315451285218528  1.0000
