data_image0
_chemical_formula_structural       H40C48N12O16Cl4
_chemical_formula_sum              "H40 C48 N12 O16 Cl4"
_cell_length_a       10.619474518644815
_cell_length_b       9.169951519463803
_cell_length_c       12.592384744723155
_cell_angle_alpha    90.0
_cell_angle_beta     94.93548018942333
_cell_angle_gamma    90.0

_space_group_name_H-M_alt    "P 1"
_space_group_IT_number       1

loop_
  _space_group_symop_operation_xyz
  'x, y, z'

loop_
  _atom_site_type_symbol
  _atom_site_label
  _atom_site_symmetry_multiplicity
  _atom_site_fract_x
  _atom_site_fract_y
  _atom_site_fract_z
  _atom_site_occupancy
  H   H1        1.0  0.7442018283006965  0.9358485038644785  0.18190860911054563  1.0000
  H   H2        1.0  0.7557981719342829  0.43584850383524176  0.3180913907187383  1.0000
  H   H3        1.0  0.25579817241962105  0.0641514961939949  0.8180913909769469  1.0000
  H   H4        1.0  0.24420182784508537  0.5641514962232316  0.6819086093754548  1.0000
  H   H5        1.0  0.6824516949947036  0.17637296735616448  0.2537611431045356  1.0000
  H   H6        1.0  0.8175483052402757  0.6763729673854011  0.24623885672474835  1.0000
  H   H7        1.0  0.3175483047846646  0.8236270327023089  0.7462388569896575  1.0000
  H   H8        1.0  0.18245169548004175  0.3236270326730722  0.7537611433627441  1.0000
  H   H9        1.0  0.5412431030559509  0.30880273074394393  0.936923214985304  1.0000
  H   H10       1.0  0.9587568960980117  0.8088027307731805  0.5630767847608068  1.0000
  H   H11       1.0  0.4587568966341875  0.6911972693145294  0.06307678431183109  1.0000
  H   H12       1.0  0.04124310368135641  0.19119726928529274  0.43692321533338613  1.0000
  H   H13       1.0  0.6040193799173633  0.0714511291154909  0.8659857587045673  1.0000
  H   H14       1.0  0.8959806201775489  0.5714511291447276  0.6340142410348429  1.0000
  H   H15       1.0  0.39598061986200483  0.9285488698524641  0.13401424138962573  1.0000
  H   H16       1.0  0.10401938054276877  0.42854887091374577  0.3659857590526495  1.0000
  H   H17       1.0  0.7784053067618117  0.6461577912842082  0.017157221870994017  1.0000
  H   H18       1.0  0.7215946935623971  0.14615779125497158  0.4828427787553479  1.0000
  H   H19       1.0  0.22159469301755638  0.3538422087742651  0.9828427782231991  1.0000
  H   H20       1.0  0.27840530621697096  0.8538422088035017  0.5171572213388451  1.0000
  H   H21       1.0  0.8901272318504257  0.2602722800588544  0.7937720718301249  1.0000
  H   H22       1.0  0.6098727683337161  0.7602722800880911  0.7062279287063434  1.0000
  H   H23       1.0  0.10987276792894246  0.739727719999619  0.20622792826406816  1.0000
  H   H24       1.0  0.39012723144565203  0.23972771997038228  0.29377207138784955  1.0000
  H   H25       1.0  0.9818095527373994  0.11840851804890354  0.9499734976071486  1.0000
  H   H26       1.0  0.5181904474467421  0.6184085180781402  0.5500265029293198  1.0000
  H   H27       1.0  0.018190447041968594  0.8815914820095698  0.0500265024870445  1.0000
  H   H28       1.0  0.48180955327357533  0.38159148198033316  0.44997349715817275  1.0000
  H   H29       1.0  0.8776819758165275  0.47060282607168424  0.1525955545253345  1.0000
  H   H30       1.0  0.6223180244184517  0.9706028261009209  0.3474044453039494  1.0000
  H   H31       1.0  0.12231802490378993  0.5293971739867891  0.847404445562158  1.0000
  H   H32       1.0  0.3776819753609164  0.029397173957552473  0.6525955547902436  1.0000
  H   H33       1.0  0.7604826315818561  0.4705990365205698  0.7362865402099994  1.0000
  H   H34       1.0  0.7395173685130558  0.9705990365498063  0.7637134595294108  1.0000
  H   H35       1.0  0.2395173681975119  0.5294009624473853  0.26371345988419354  1.0000
  H   H36       1.0  0.2604826322072617  0.029400963508666916  0.2362865405580817  1.0000
  H   H37       1.0  0.7338823977103538  0.6160436811480898  0.826384450831467  1.0000
  H   H38       1.0  0.7661176023845583  0.11604368111885309  0.6736155489079433  1.0000
  H   H39       1.0  0.2661176020690144  0.38395631891038356  0.17361554926272604  1.0000
  H   H40       1.0  0.2338823973055802  0.8839563189396201  0.3263844503891918  1.0000
  C   C1        1.0  0.6796640967076387  0.9877870183690622  0.019175134311263668  1.0000
  C   C2        1.0  0.8203359035273405  0.48778701833982546  0.48082486551802034  1.0000
  C   C3        1.0  0.3203359030717294  0.012212981689411219  0.9808248657829294  1.0000
  C   C4        1.0  0.179664097192977  0.5122129817186478  0.5191751345694723  1.0000
  C   C5        1.0  0.7000791947376293  0.017777044911741473  0.12858591850597512  1.0000
  C   C6        1.0  0.7999208054973499  0.5177770449409781  0.37141408132330883  1.0000
  C   C7        1.0  0.2999208059826882  0.9822229551467317  0.8714140815815175  1.0000
  C   C8        1.0  0.20007919428201817  0.48222295511749513  0.6285859187708842  1.0000
  C   C9        1.0  0.6645590421047016  0.15109752838486307  0.16926548031774663  1.0000
  C   C10       1.0  0.8354409581302777  0.6510975284140997  0.3307345195115373  1.0000
  C   C11       1.0  0.3354409586156159  0.848902470583092  0.8307345197697459  1.0000
  C   C12       1.0  0.16455904164909052  0.3489024705538553  0.6692654805826559  1.0000
  C   C13       1.0  0.6070158886075419  0.2548344694124012  0.09949060508404478  1.0000
  C   C14       1.0  0.8929841116274373  0.7548344694416378  0.4005093947452391  1.0000
  C   C15       1.0  0.39298411117182624  0.7451655306460722  0.9005093950101482  1.0000
  C   C16       1.0  0.10701588815193078  0.2451655306168355  0.5994906053489538  1.0000
  C   C17       1.0  0.5865972287432434  0.22759519454057442  0.9902625418867229  1.0000
  C   C18       1.0  0.9134027713516686  0.727595194569811  0.5097374578526873  1.0000
  C   C19       1.0  0.4134027710361247  0.7724048044273807  0.009737458207470058  1.0000
  C   C20       1.0  0.0865972284276995  0.27240480548866225  0.4902625422415057  1.0000
  C   C21       1.0  0.6231302047321513  0.09385581354200281  0.9506990860303802  1.0000
  C   C22       1.0  0.8768697953627607  0.5938558135712395  0.5493009137090301  1.0000
  C   C23       1.0  0.37686979495798717  0.9061441865164706  0.04930091326675483  1.0000
  C   C24       1.0  0.12313020441660738  0.4061441864872338  0.4506990863851629  1.0000
  C   C25       1.0  0.7138031343652138  0.8437909386518151  0.976273469891527  1.0000
  C   C26       1.0  0.7861968657296982  0.3437909386225784  0.5237265298478834  1.0000
  C   C27       1.0  0.2861968654141544  0.15620906140665822  0.023726530202666154  1.0000
  C   C28       1.0  0.21380313499061915  0.6562090614358949  0.47627347023960914  1.0000
  C   C29       1.0  0.8277611271891631  0.4380937937864807  0.8908828674710769  1.0000
  C   C30       1.0  0.672238872905749  0.9380937938157173  0.6091171322683334  1.0000
  C   C31       1.0  0.17223887259020507  0.5619062062719927  0.10911713262311609  1.0000
  C   C32       1.0  0.32776112687361925  0.06190620624275601  0.3908828678258597  1.0000
  C   C33       1.0  0.886551718734845  0.3013123628991185  0.8744367591135815  1.0000
  C   C34       1.0  0.6134482813600672  0.8013123629283551  0.6255632406258287  1.0000
  C   C35       1.0  0.11344828095529358  0.6986876371593549  0.12556324018355344  1.0000
  C   C36       1.0  0.3865517193602503  0.1986876371301182  0.3744367594616638  1.0000
  C   C37       1.0  0.9383232465894608  0.22401131190714454  0.960653211871609  1.0000
  C   C38       1.0  0.5616767535054513  0.7240113119363812  0.5393467878678013  1.0000
  C   C39       1.0  0.0616767531899074  0.7759886870608105  0.03934678822258411  1.0000
  C   C40       1.0  0.4383232462739169  0.2759886870315738  0.46065321222639166  1.0000
  C   C41       1.0  0.933524068404847  0.2836688813979796  0.06316692758581784  1.0000
  C   C42       1.0  0.5664759308891828  0.7836688814272162  0.4368330722501666  1.0000
  C   C43       1.0  0.06647593137452104  0.7163311186604937  0.9368330725083752  1.0000
  C   C44       1.0  0.43352406889018535  0.21633111863125706  0.5631669278440264  1.0000
  C   C45       1.0  0.8796383639469387  0.42077452337780935  0.0741833411889265  1.0000
  C   C46       1.0  0.6203616353470912  0.9207745234070459  0.4258166586470579  1.0000
  C   C47       1.0  0.12036163574319975  0.579225476680664  0.9258166581082086  1.0000
  C   C48       1.0  0.3796383644322769  0.07922547665142732  0.5741833414471351  1.0000
  N   N1        1.0  0.8286694662157742  0.49598440409922095  0.9909848425001888  1.0000
  N   N2        1.0  0.6713305339683675  0.9959844041284577  0.5090151580362795  1.0000
  N   N3        1.0  0.171330533563594  0.5040155959592524  0.009015157594004211  1.0000
  N   N4        1.0  0.3286694667519499  0.004015595930015685  0.49098484205121307  1.0000
  N   N5        1.0  0.9829586188524922  0.20550616063782548  0.15606347336760712  1.0000
  N   N6        1.0  0.5170413813824869  0.7055061606670622  0.34393652646167683  1.0000
  N   N7        1.0  0.017041381867825098  0.7944938394206479  0.8439365267198854  1.0000
  N   N8        1.0  0.4829586183968813  0.29449383939141116  0.6560634736325163  1.0000
  N   N9        1.0  0.7709123176272914  0.5156369409329749  0.8107554780339284  1.0000
  N   N10       1.0  0.7290876824676206  0.01563694090373822  0.6892445217054819  1.0000
  N   N11       1.0  0.22908768215207667  0.4843630591254984  0.1892445220602645  1.0000
  N   N12       1.0  0.27091231731174753  0.9843630591547351  0.31075547838871126  1.0000
  O   O1        1.0  0.7522516264526344  0.7476556964829942  0.05024419948793679  1.0000
  O   O2        1.0  0.7477483738715744  0.2476556964537575  0.4497558011384052  1.0000
  O   O3        1.0  0.24774837426768306  0.25234430357547916  0.9497558005995558  1.0000
  O   O4        1.0  0.25225162590779365  0.7523443036047158  0.5502441989557878  1.0000
  O   O5        1.0  0.7058759760637906  0.8165033527285002  0.8787893219127351  1.0000
  O   O6        1.0  0.7941240240311214  0.31650335269926355  0.6212106778266754  1.0000
  O   O7        1.0  0.29412402371557755  0.18349664732997306  0.12121067818145806  1.0000
  O   O8        1.0  0.20587597668919605  0.6834966473592097  0.37878932226081724  1.0000
  O   O9        1.0  0.029699619445467534  0.08231509931081263  0.14362457724023162  1.0000
  O   O10       1.0  0.4703003808700763  0.5823150993400493  0.35637542240498565  1.0000
  O   O11       1.0  0.9703003812748499  0.9176848996571425  0.856375422847261  1.0000
  O   O12       1.0  0.5296996189092918  0.4176848996279057  0.6436245776892073  1.0000
  O   O13       1.0  0.9761633715609508  0.2628389882851784  0.2453956081986054  1.0000
  O   O14       1.0  0.5238366286740285  0.7628389883144151  0.25460439163067855  1.0000
  O   O15       1.0  0.023836628218417324  0.737161011773295  0.7546043918955877  1.0000
  O   O16       1.0  0.476163372046289  0.23716101174405826  0.7453956084568141  1.0000
  Cl  Cl1       1.0  0.559847724530864  0.4194298510560607  0.1502638535963601  1.0000
  Cl  Cl2       1.0  0.940152274763166  0.9194298510852974  0.3497361462396244  1.0000
  Cl  Cl3       1.0  0.44015227524850414  0.5805701490024125  0.8497361464978329  1.0000
  Cl  Cl4       1.0  0.05984772501620222  0.08057014897317598  0.6502638538545688  1.0000
