data_image0
_chemical_formula_structural       H32C22N6O2S2I2
_chemical_formula_sum              "H32 C22 N6 O2 S2 I2"
_cell_length_a       6.69408574233916
_cell_length_b       7.406431071949939
_cell_length_c       15.146106781915936
_cell_angle_alpha    81.182843424754
_cell_angle_beta     80.72257999471793
_cell_angle_gamma    73.27812598087807

_space_group_name_H-M_alt    "P 1"
_space_group_IT_number       1

loop_
  _space_group_symop_operation_xyz
  'x, y, z'

loop_
  _atom_site_type_symbol
  _atom_site_label
  _atom_site_symmetry_multiplicity
  _atom_site_fract_x
  _atom_site_fract_y
  _atom_site_fract_z
  _atom_site_occupancy
  H   H1        1.0  0.35922773377775546  0.07188051575375215  0.06489189161352091  1.0000
  H   H2        1.0  0.6407722667065723  0.9281194836135014  0.9351081086365163  1.0000
  H   H3        1.0  0.7860230377726689  0.5497204130146565  0.06540067697166588  1.0000
  H   H4        1.0  0.2139769629025639  0.45027958652465855  0.9345993226050878  1.0000
  H   H5        1.0  0.9426286028784823  0.41326462548285636  0.1463021329396942  1.0000
  H   H6        1.0  0.05737139779675065  0.5867353740564586  0.8536978666370595  1.0000
  H   H7        1.0  0.23038737648106775  0.6008499706124658  0.33226857344351507  1.0000
  H   H8        1.0  0.7696126225144269  0.39915002873940536  0.6677314268064215  1.0000
  H   H9        1.0  0.694983227804603  0.9629267861492261  0.18351269966630035  1.0000
  H   H10       1.0  0.30501677221304074  0.03707321462637011  0.8164873005892742  1.0000
  H   H11       1.0  0.8336630863383759  0.08414020692886096  0.4174252242534944  1.0000
  H   H12       1.0  0.16633691433685713  0.9158597926104539  0.5825747753232593  1.0000
  H   H13       1.0  0.8877597068393397  0.28835828327327995  0.44747596607787743  1.0000
  H   H14       1.0  0.11224029336920924  0.7116417176743778  0.5525240335044137  1.0000
  H   H15       1.0  0.0949191188036704  0.10363696747954464  0.4028300998365066  1.0000
  H   H16       1.0  0.9050808797251402  0.8963630332806691  0.5971699004189674  1.0000
  H   H17       1.0  0.945551999138999  0.1743101723727298  0.2551202074764774  1.0000
  H   H18       1.0  0.054447999856495496  0.8256898269791415  0.7448797927734592  1.0000
  H   H19       1.0  0.005659643131887238  0.3782776379672002  0.2837046897618214  1.0000
  H   H20       1.0  0.9943403573524405  0.6217223614000534  0.7162953104882157  1.0000
  H   H21       1.0  0.7806100577224855  0.6631655305206715  0.49615460837532394  1.0000
  H   H22       1.0  0.21938994276184223  0.336834468846582  0.5038453918747132  1.0000
  H   H23       1.0  0.3902899280110846  0.012690701251535005  0.29899785254678357  1.0000
  H   H24       1.0  0.6097100720065591  0.9873092995240612  0.7010021477087911  1.0000
  H   H25       1.0  0.42828632900568997  0.8586811453542742  0.45693554131414843  1.0000
  H   H26       1.0  0.5717136714786378  0.14131885401297928  0.5430644589358886  1.0000
  H   H27       1.0  0.17100113999743163  0.9283322525341655  0.08052223390192875  1.0000
  H   H28       1.0  0.8289988604868961  0.07166774683308813  0.9194777663481084  1.0000
  H   H29       1.0  0.9149647322136192  0.8963609593139122  0.09040427539801224  1.0000
  H   H30       1.0  0.08503526827070845  0.10363904005334136  0.9095957248520249  1.0000
  H   H31       1.0  0.14390731312873253  0.7110520051141913  0.0607025486650985  1.0000
  H   H32       1.0  0.856092687355595  0.2889479942530622  0.9392974515849387  1.0000
  C   C1        1.0  0.6239698079197703  0.5152940293441008  0.18901951077100496  1.0000
  C   C2        1.0  0.3760301927554628  0.48470597019521405  0.8109804888057486  1.0000
  C   C3        1.0  0.9170785088303424  0.7867904757199737  0.2712419309330452  1.0000
  C   C4        1.0  0.08292149016515223  0.21320952363189757  0.7287580693168912  1.0000
  C   C5        1.0  0.7158941379384498  0.8974281234784738  0.2518837540541551  1.0000
  C   C6        1.0  0.2841058625458777  0.1025718758887798  0.7481162461958821  1.0000
  C   C7        1.0  0.9370387362577676  0.7065349809818989  0.36271624334290836  1.0000
  C   C8        1.0  0.06296126422656012  0.2934650183853545  0.6372837569071288  1.0000
  C   C9        1.0  0.09647664754817292  0.7530831796028196  0.20076979560007652  1.0000
  C   C10       1.0  0.9035233531270601  0.24691681993649528  0.7992302039766771  1.0000
  C   C11       1.0  0.9304980604397092  0.18432407231299858  0.39855076802091777  1.0000
  C   C12       1.0  0.06950193957793466  0.8156759284625975  0.6014492322346568  1.0000
  C   C13       1.0  0.9057386576881087  0.280461980670308  0.3030588297660017  1.0000
  C   C14       1.0  0.09426134232953494  0.7195380201052882  0.6969411704895729  1.0000
  C   C15       1.0  0.7601228917067508  0.7326846881858855  0.42808349844670873  1.0000
  C   C16       1.0  0.23987710831089293  0.2673153125897107  0.5719165018088658  1.0000
  C   C17       1.0  0.5425204810925481  0.9262645662691564  0.31718691482108624  1.0000
  C   C18       1.0  0.45747951762716765  0.07373543466311883  0.6828130847611044  1.0000
  C   C19       1.0  0.5645431148290532  0.8413565923044799  0.4054905045029527  1.0000
  C   C20       1.0  0.43545688518859066  0.15864340847111624  0.5945094957526219  1.0000
  C   C21       1.0  0.07654091101741135  0.8265516472944072  0.10341094171632428  1.0000
  C   C22       1.0  0.9234590879780831  0.173448352057464  0.8965890585336121  1.0000
  N   N1        1.0  0.2799133532782213  0.653398937591326  0.22529402300111748  1.0000
  N   N2        1.0  0.7200866467394225  0.34660106318427014  0.7747059772544572  1.0000
  N   N3        1.0  0.4470301145398189  0.6232578583076771  0.1590042413414959  1.0000
  N   N4        1.0  0.5529698859445088  0.37674214105957643  0.8409957589085412  1.0000
  N   N5        1.0  0.7978921715268482  0.4782992364500977  0.12811859503374182  1.0000
  N   N6        1.0  0.20210782914838474  0.5217007630892172  0.8718814045430119  1.0000
  O   O1        1.0  0.12346541054381631  0.6021628205806957  0.38885717416234683  1.0000
  O   O2        1.0  0.8765345894738273  0.39783718019490044  0.6111428260932279  1.0000
  S   S1        1.0  0.6316826807125064  0.41414101492472755  0.30058387686351473  1.0000
  S   S2        1.0  0.36831731781630406  0.5858589858354863  0.6994161233919594  1.0000
  I   I1        1.0  0.3820745758656099  0.2725527716184456  0.09002167625419576  1.0000
  I   I2        1.0  0.6179254241520339  0.7274472291571505  0.909978324001379  1.0000
