data_image0
_chemical_formula_structural       H14C28N4Cl2
_chemical_formula_sum              "H14 C28 N4 Cl2"
_cell_length_a       7.175365167633113
_cell_length_b       7.9987368190099355
_cell_length_c       9.864691641933423
_cell_angle_alpha    67.31217288643904
_cell_angle_beta     77.05639186355644
_cell_angle_gamma    87.02416944590168

_space_group_name_H-M_alt    "P 1"
_space_group_IT_number       1

loop_
  _space_group_symop_operation_xyz
  'x, y, z'

loop_
  _atom_site_type_symbol
  _atom_site_label
  _atom_site_symmetry_multiplicity
  _atom_site_fract_x
  _atom_site_fract_y
  _atom_site_fract_z
  _atom_site_occupancy
  H   H1        1.0  0.6183320688769838  0.8051104654540467  0.4645888802167392  1.0000
  H   H2        1.0  0.3816679305710812  0.19488953454001753  0.5354111195696492  1.0000
  H   H3        1.0  0.3558260398510586  0.8518359612501801  0.002063543777987445  1.0000
  H   H4        1.0  0.6441739609255478  0.14816403999445865  0.9979364560012995  1.0000
  H   H5        1.0  0.2524502430734624  0.5687853297619165  0.9867000936709165  1.0000
  H   H6        1.0  0.7475497577685992  0.4312146702277218  0.013299906115171616  1.0000
  H   H7        1.0  0.07450591407301409  0.28087220822162795  0.10127369945838063  1.0000
  H   H8        1.0  0.925494085375051  0.7191277917724362  0.8987263003280078  1.0000
  H   H9        1.0  0.8706107229480512  0.04507331566668791  0.32442509749336607  1.0000
  H   H10       1.0  0.12938927757718643  0.9549266838093146  0.6755749034193922  1.0000
  H   H11       1.0  0.7819446581141434  0.08115769671078263  0.5670024373066775  1.0000
  H   H12       1.0  0.21805534101709748  0.9188423027696457  0.4329975636063811  1.0000
  H   H13       1.0  0.2692682479477076  0.896201040014055  0.2411660355507021  1.0000
  H   H14       1.0  0.7307317515003574  0.1037989599800089  0.7588339642356864  1.0000
  C   C1        1.0  0.5680025109683519  0.6720769473762933  0.47869092986293743  1.0000
  C   C2        1.0  0.4319974884797132  0.3279230526177709  0.5213090699234509  1.0000
  C   C3        1.0  0.595747701762948  0.6244967284096641  0.3569965664102424  1.0000
  C   C4        1.0  0.404252297685117  0.37550327158440006  0.6430034333761461  1.0000
  C   C5        1.0  0.5266519554846447  0.44889605973203317  0.3732674917133434  1.0000
  C   C6        1.0  0.4733480453574169  0.5511039402576049  0.6267325080727447  1.0000
  C   C7        1.0  0.4943595050538  0.2512941871381157  0.261697060797113  1.0000
  C   C8        1.0  0.5056404957882615  0.7487058128515226  0.738302938988975  1.0000
  C   C9        1.0  0.26840552131085427  0.7483950497525161  0.10082559194205583  1.0000
  C   C10       1.0  0.7315944781372108  0.2516049502415481  0.8991744078443326  1.0000
  C   C11       1.0  0.21115151841360763  0.5912300877522305  0.09139567668934162  1.0000
  C   C12       1.0  0.788848482428454  0.4087699122374076  0.9086043230967464  1.0000
  C   C13       1.0  0.09715398459772222  0.45570927762724395  0.21847057834862585  1.0000
  C   C14       1.0  0.9028460159275152  0.5442907218487585  0.7815294225641325  1.0000
  C   C15       1.0  0.033184610403583295  0.2969702425415335  0.20872547388054413  1.0000
  C   C16       1.0  0.9668153887276577  0.703029756938895  0.7912745270325144  1.0000
  C   C17       1.0  0.9207840228133468  0.165858205482937  0.333409497726336  1.0000
  C   C18       1.0  0.07921597771189066  0.8341417939930654  0.6665905031864222  1.0000
  C   C19       1.0  0.8712682955505261  0.1867254220615089  0.47144720953835173  1.0000
  C   C20       1.0  0.12873170522608027  0.8132745791831297  0.5285527902409352  1.0000
  C   C21       1.0  0.9348401549512377  0.3394565998533764  0.48792530791095284  1.0000
  C   C22       1.0  0.06515984589082392  0.6605434001362617  0.5120746918751353  1.0000
  C   C23       1.0  0.04785167796563096  0.47801692877035534  0.3593609993414759  1.0000
  C   C24       1.0  0.9521483228764307  0.5219830712192827  0.6406390004446123  1.0000
  C   C25       1.0  0.11221829916400627  0.638900726814498  0.36830941476562246  1.0000
  C   C26       1.0  0.8877817002840588  0.3610992731795661  0.631690585020766  1.0000
  C   C27       1.0  0.21888586877383573  0.7723948063438859  0.23739464699138133  1.0000
  C   C28       1.0  0.7811141306742293  0.22760519365017823  0.7626053527950071  1.0000
  N   N1        1.0  0.5524739311437529  0.408548613081944  0.2516688652768801  1.0000
  N   N2        1.0  0.4475260683043121  0.5914513869121202  0.7483311345095083  1.0000
  N   N3        1.0  0.44913267268227186  0.11424610851650221  0.25686632016749195  1.0000
  N   N4        1.0  0.5508673267657931  0.8857538914775619  0.7431336796188965  1.0000
  Cl  Cl1       1.0  0.7166023427048394  0.7695540084847206  0.18345503888050685  1.0000
  Cl  Cl2       1.0  0.28339765813722223  0.23044599150491743  0.8165449609055813  1.0000
