data_image0
_chemical_formula_structural       H28C20N10O8Cl2
_chemical_formula_sum              "H28 C20 N10 O8 Cl2"
_cell_length_a       5.211453356570782
_cell_length_b       22.975803039267948
_cell_length_c       5.6281114001835935
_cell_angle_alpha    90.0
_cell_angle_beta     110.07393761883687
_cell_angle_gamma    90.0

_space_group_name_H-M_alt    "P 1"
_space_group_IT_number       1

loop_
  _space_group_symop_operation_xyz
  'x, y, z'

loop_
  _atom_site_type_symbol
  _atom_site_label
  _atom_site_symmetry_multiplicity
  _atom_site_fract_x
  _atom_site_fract_y
  _atom_site_fract_z
  _atom_site_occupancy
  H   H1        1.0  0.24060557474326275  0.5407161716509836  0.22615096165280874  1.0000
  H   H2        1.0  0.7593944241312489  0.040716171635052735  0.77384903740475  1.0000
  H   H3        1.0  0.7593944241312489  0.45928382794563777  0.77384903740475  1.0000
  H   H4        1.0  0.24060557474326275  0.9592838279615686  0.22615096165280874  1.0000
  H   H5        1.0  0.0008178146009470995  0.39488235969353414  0.575856504558908  1.0000
  H   H6        1.0  0.9991821849369047  0.8948823597094652  0.42414349639000065  1.0000
  H   H7        1.0  0.9991821849369047  0.6051176403383278  0.42414349639000065  1.0000
  H   H8        1.0  0.0008178146009470995  0.10511764032239684  0.575856504558908  1.0000
  H   H9        1.0  0.27460347389026485  0.3547867308954666  0.3168385248976022  1.0000
  H   H10       1.0  0.7253965249842468  0.8547867309113976  0.6831614741599565  1.0000
  H   H11       1.0  0.7253965249842468  0.6452132691363953  0.6831614741599565  1.0000
  H   H12       1.0  0.27460347389026485  0.1452132691204644  0.3168385248976022  1.0000
  H   H13       1.0  0.43017645194725523  0.449000903792945  0.08879030868262053  1.0000
  H   H14       1.0  0.5698235475905965  0.9490009038088759  0.9112096922662881  1.0000
  H   H15       1.0  0.5698235475905965  0.550999096238917  0.9112096922662881  1.0000
  H   H16       1.0  0.43017645194725523  0.05099909622298599  0.08879030868262053  1.0000
  H   H17       1.0  0.3147116108746197  0.7500000000238963  0.3403233344903246  1.0000
  H   H18       1.0  0.6852883899321609  0.25000000000796546  0.6596766646044349  1.0000
  H   H19       1.0  0.04866673677984127  0.7500000000238963  0.05833291948201699  1.0000
  H   H20       1.0  0.9513332646902792  0.25000000000796546  0.9416670815040924  1.0000
  H   H21       1.0  0.5902641250498041  0.6958801375810115  0.14602026331404233  1.0000
  H   H22       1.0  0.40973587575697645  0.1958801375650805  0.8539797357807172  1.0000
  H   H23       1.0  0.40973587575697645  0.3041198624508505  0.8539797357807172  1.0000
  H   H24       1.0  0.5902641250498041  0.8041198624667815  0.14602026331404233  1.0000
  H   H25       1.0  0.3036574571096197  0.6945026914936686  0.8613044532818371  1.0000
  H   H26       1.0  0.6963425424282321  0.19450269147773763  0.13869554766707162  1.0000
  H   H27       1.0  0.6963425424282321  0.30549730853819335  0.13869554766707162  1.0000
  H   H28       1.0  0.3036574571096197  0.8054973081188838  0.8613044532818371  1.0000
  C   C1        1.0  0.06892621212092871  0.48088867801993646  0.4404497766110176  1.0000
  C   C2        1.0  0.931073787416923  0.9808886780358673  0.5595502243378911  1.0000
  C   C3        1.0  0.931073787416923  0.5191113220119256  0.5595502243378911  1.0000
  C   C4        1.0  0.06892621212092871  0.01911132199599455  0.4404497766110176  1.0000
  C   C5        1.0  0.23686282773673692  0.40127561044298343  0.3266789180911237  1.0000
  C   C6        1.0  0.7631371737333836  0.9012756104589144  0.6733210828949857  1.0000
  C   C7        1.0  0.7631371737333836  0.5987243895888784  0.6733210828949857  1.0000
  C   C8        1.0  0.23686282773673692  0.0987243895729475  0.3266789180911237  1.0000
  C   C9        1.0  0.3117591712718604  0.4481922547995563  0.21400566764084183  1.0000
  C   C10       1.0  0.6882408282659914  0.9481922548154872  0.785994333308067  1.0000
  C   C11       1.0  0.6882408282659914  0.5518077452323056  0.785994333308067  1.0000
  C   C12       1.0  0.3117591712718604  0.05180774521637464  0.21400566764084183  1.0000
  C   C13       1.0  0.36628398903648846  0.6955868477234826  0.0682598463576906  1.0000
  C   C14       1.0  0.6337160098380233  0.19558684770755153  0.9317401526998682  1.0000
  C   C15       1.0  0.6337160098380233  0.3044131523083794  0.9317401526998682  1.0000
  C   C16       1.0  0.36628398903648846  0.8044131523243104  0.0682598463576906  1.0000
  C   C17       1.0  0.2560721739676419  0.6430631919479911  0.16678424113367524  1.0000
  C   C18       1.0  0.7439278275024788  0.1430631919320601  0.8332157598524341  1.0000
  C   C19       1.0  0.7439278275024788  0.35693680808387085  0.8332157598524341  1.0000
  C   C20       1.0  0.2560721739676419  0.8569368080998018  0.16678424113367524  1.0000
  N   N1        1.0  0.20581543792339932  0.4971109392990301  0.2861889653938049  1.0000
  N   N2        1.0  0.7941845635467213  0.9971109393149611  0.7138110355923046  1.0000
  N   N3        1.0  0.7941845635467213  0.5028890607328318  0.7138110355923046  1.0000
  N   N4        1.0  0.20581543792339932  0.002889060716900842  0.2861889653938049  1.0000
  N   N5        1.0  0.08676683850884463  0.4224485391614523  0.46536851081073927  1.0000
  N   N6        1.0  0.9132331610290072  0.9224485391773833  0.5346314901381695  1.0000
  N   N7        1.0  0.9132331610290072  0.5775514608704096  0.5346314901381695  1.0000
  N   N8        1.0  0.08676683850884463  0.07755146085447866  0.46536851081073927  1.0000
  N   N9        1.0  0.2614210914614499  0.7500000000238963  0.1440624067571065  1.0000
  N   N10       1.0  0.7385789074130619  0.25000000000796546  0.8559375923004523  1.0000
  O   O1        1.0  0.33275428691731923  0.5934779061561131  0.11641740073937541  1.0000
  O   O2        1.0  0.6672457145528015  0.0934779061401821  0.883582600246734  1.0000
  O   O3        1.0  0.6672457145528015  0.40652209387574884  0.883582600246734  1.0000
  O   O4        1.0  0.33275428691731923  0.9065220938916798  0.11641740073937541  1.0000
  O   O5        1.0  0.09920767086890515  0.6526865435071123  0.2916501625451865  1.0000
  O   O6        1.0  0.9007923280056065  0.15268654349118127  0.7083498365123723  1.0000
  O   O7        1.0  0.9007923280056065  0.3473134565247497  0.7083498365123723  1.0000
  O   O8        1.0  0.09920767086890515  0.8473134565406807  0.2916501625451865  1.0000
  Cl  Cl1       1.0  0.7150514941264772  0.7500000000238963  0.6854356210020596  1.0000
  Cl  Cl2       1.0  0.28494850474803446  0.25000000000796546  0.3145643780554992  1.0000
