data_image0
_chemical_formula_structural       H40C56O8Br8
_chemical_formula_sum              "H40 C56 O8 Br8"
_cell_length_a       12.174159188841752
_cell_length_b       12.221530703083925
_cell_length_c       9.854834417504875
_cell_angle_alpha    98.95144108544915
_cell_angle_beta     112.45356265475789
_cell_angle_gamma    101.58151213635784

_space_group_name_H-M_alt    "P 1"
_space_group_IT_number       1

loop_
  _space_group_symop_operation_xyz
  'x, y, z'

loop_
  _atom_site_type_symbol
  _atom_site_label
  _atom_site_symmetry_multiplicity
  _atom_site_fract_x
  _atom_site_fract_y
  _atom_site_fract_z
  _atom_site_occupancy
  H   H1        1.0  0.1501924298430603  0.693185213707351  0.5277590467848622  1.0000
  H   H2        1.0  0.8498075697052372  0.3068147855945958  0.4722409525744584  1.0000
  H   H3        1.0  0.7631559531391884  0.42878719533229515  0.19536267799348805  1.0000
  H   H4        1.0  0.23684404696829672  0.5712128050271962  0.8046373225006638  1.0000
  H   H5        1.0  0.8685053804503864  0.8052136231254016  0.6282337249723559  1.0000
  H   H6        1.0  0.13149461965709877  0.19478637723408984  0.37176627552179603  1.0000
  H   H7        1.0  0.9599327431618054  0.7268862713154569  0.8310815493619921  1.0000
  H   H8        1.0  0.04006725694567972  0.2731137290440344  0.16891845113215975  1.0000
  H   H9        1.0  0.26531606562721155  0.03338381264490421  0.9533664540132242  1.0000
  H   H10       1.0  0.7346839343176381  0.9666161868795974  0.04663354648208483  1.0000
  H   H11       1.0  0.5380863744896264  0.952548128531691  0.823591497125353  1.0000
  H   H12       1.0  0.4619136250586709  0.047451870770255845  0.1764085022339676  1.0000
  H   H13       1.0  0.5002038323276716  0.08304583450412328  0.6510853629397128  1.0000
  H   H14       1.0  0.4997961676171781  0.9169541650203781  0.3489146375555962  1.0000
  H   H15       1.0  0.2853759859816358  0.09520966655454201  0.5125506844516036  1.0000
  H   H16       1.0  0.7146240141258494  0.9047903338049493  0.4874493160425483  1.0000
  H   H17       1.0  0.11214048794327798  0.9815633065705222  0.5497966427339678  1.0000
  H   H18       1.0  0.8878595120015718  0.018436692953979376  0.4502033577613412  1.0000
  H   H19       1.0  0.44281278540504065  0.6896416270448212  0.060733904207952424  1.0000
  H   H20       1.0  0.5571872145398088  0.31035837247968023  0.9392660962873565  1.0000
  H   H21       1.0  0.5984617336643795  0.7798996279374267  0.14655383677978848  1.0000
  H   H22       1.0  0.4015382664431056  0.2201003724220646  0.8534461637143634  1.0000
  H   H23       1.0  0.5878294810048378  0.5839981291572306  0.01247498061793811  1.0000
  H   H24       1.0  0.41217051854345954  0.41600187014471607  0.9875250187413825  1.0000
  H   H25       1.0  0.4782788002136594  0.5965332118811305  0.8390880701316827  1.0000
  H   H26       1.0  0.5217211994972734  0.403466788255806  0.16091192922648087  1.0000
  H   H27       1.0  0.6334235592532363  0.6901835145010727  0.9248989734292291  1.0000
  H   H28       1.0  0.36657644151385727  0.3098164850286786  0.07510102706540446  1.0000
  H   H29       1.0  0.2414518026226706  0.5098744446139387  0.05203946903876254  1.0000
  H   H30       1.0  0.7585481983070587  0.4901255557508025  0.9479605314547142  1.0000
  H   H31       1.0  0.22035649059508355  0.7092041284202636  0.07805426734202067  1.0000
  H   H32       1.0  0.7796435089532138  0.2907958708816833  0.9219457320172999  1.0000
  H   H33       1.0  0.2919958846450186  0.8389270312185327  0.33640346805496446  1.0000
  H   H34       1.0  0.7080041158881584  0.1610729689236538  0.6635965313025239  1.0000
  H   H35       1.0  0.392748621999279  0.7717372512596442  0.5650994919505213  1.0000
  H   H36       1.0  0.6072513777116538  0.22826274887729242  0.4349005074076423  1.0000
  H   H37       1.0  0.4148986449701749  0.5718371625090695  0.5388943694683024  1.0000
  H   H38       1.0  0.585101354740758  0.4281628376278671  0.46110562988986115  1.0000
  H   H39       1.0  0.33716658107456743  0.44059613444155477  0.2817334730755206  1.0000
  H   H40       1.0  0.6628334186363654  0.5594038656953817  0.718266526282643  1.0000
  C   C1        1.0  0.11822345100550827  0.8427508269631588  0.7317643632935161  1.0000
  C   C2        1.0  0.8817765489393413  0.15724917256134258  0.26823563720179283  1.0000
  C   C3        1.0  0.021045690948126795  0.7557238992212246  0.5997111553334669  1.0000
  C   C4        1.0  0.9789543091593583  0.24427610113826673  0.40028884516068514  1.0000
  C   C5        1.0  0.053208822362390336  0.6832149110305429  0.5039477667012983  1.0000
  C   C6        1.0  0.9467911773485426  0.3167850891063936  0.49605223265686527  1.0000
  C   C7        1.0  0.9618781476697884  0.5968357787614139  0.3812788649402262  1.0000
  C   C8        1.0  0.038121852275061215  0.4031642207630877  0.6187211355550827  1.0000
  C   C9        1.0  0.834763521357916  0.5804110160782576  0.34562804209099834  1.0000
  C   C10       1.0  0.16523647835301677  0.4195889840586791  0.6543719572671652  1.0000
  C   C11       1.0  0.8044485625544313  0.6587633027197235  0.4370876452162039  1.0000
  C   C12       1.0  0.19555143739041833  0.34123669680477803  0.5629123552791051  1.0000
  C   C13       1.0  0.8945216453832081  0.74397400219979  0.562122733932728  1.0000
  C   C14       1.0  0.10547835472427701  0.25602599815970134  0.4378772665614239  1.0000
  C   C15       1.0  0.11110666200354159  0.8763621570664899  0.8697051920581721  1.0000
  C   C16       1.0  0.8888933385296355  0.12363784307569668  0.13029480729931628  1.0000
  C   C17       1.0  0.021649329854958713  0.8093300732347234  0.9088138520113849  1.0000
  C   C18       1.0  0.9783506702525263  0.1906699271247679  0.091186148482767  1.0000
  C   C19       1.0  0.016748491205476217  0.8453518886540573  0.04391753753181386  1.0000
  C   C20       1.0  0.9832515089020089  0.15464811170543388  0.956082462962338  1.0000
  C   C21       1.0  0.09712736389916649  0.9544061606091743  0.1563708769271272  1.0000
  C   C22       1.0  0.9028726358117664  0.0455938395277624  0.8436291224310364  1.0000
  C   C23       1.0  0.19065308813246706  0.016114009419520715  0.11428993547061295  1.0000
  C   C24       1.0  0.8093469115784658  0.983885990717416  0.8857100638875507  1.0000
  C   C25       1.0  0.1973717214394144  0.9802461855552153  0.9804673647370056  1.0000
  C   C26       1.0  0.8026282786680705  0.01975381480427594  0.019532635757146213  1.0000
  C   C27       1.0  0.22608506658791938  0.9038076146109153  0.7100882929194303  1.0000
  C   C28       1.0  0.7739149335195658  0.09619238574857607  0.2899117075747216  1.0000
  C   C29       1.0  0.3473913019596333  0.8948828873583266  0.7865676363708974  1.0000
  C   C30       1.0  0.6526086981478519  0.10511711300116484  0.21343236412325448  1.0000
  C   C31       1.0  0.44545619399079645  0.9612580953286145  0.7661565925289754  1.0000
  C   C32       1.0  0.5545438067762972  0.03874190420113683  0.2338434079656584  1.0000
  C   C33       1.0  0.4238602846962925  0.03331755734393898  0.6683487331478551  1.0000
  C   C34       1.0  0.5761397158368845  0.9666824427982477  0.3316512662096332  1.0000
  C   C35       1.0  0.30372020988802056  0.04036145005565024  0.5906704055176204  1.0000
  C   C36       1.0  0.6962797908790731  0.9596385494741012  0.40932959497701343  1.0000
  C   C37       1.0  0.20566235051537138  0.975934345391954  0.6111509457389035  1.0000
  C   C38       1.0  0.7943376495921138  0.02406565496753736  0.3888490547552484  1.0000
  C   C39       1.0  0.3672624174268668  0.8049838074380296  0.8717524534315582  1.0000
  C   C40       1.0  0.6327375835028624  0.19501619292671177  0.12824754706191846  1.0000
  C   C41       1.0  0.5205502070439553  0.7308627883675712  0.03833511989444592  1.0000
  C   C42       1.0  0.47944979266697757  0.2691372117693653  0.9616648794637176  1.0000
  C   C43       1.0  0.5568274772485128  0.6456721298248026  0.9470535536580535  1.0000
  C   C44       1.0  0.44317252285897235  0.3543278705346887  0.052946446836098414  1.0000
  C   C45       1.0  0.2753275389011487  0.5675827741381807  0.1645667289531517  1.0000
  C   C46       1.0  0.7246724608097842  0.43241722599875587  0.8354332704050119  1.0000
  C   C47       1.0  0.26260090602974334  0.6794855239407189  0.17933542716048492  1.0000
  C   C48       1.0  0.7373990936811895  0.3205144761962176  0.8206645721976787  1.0000
  C   C49       1.0  0.30381484968391625  0.752347788085183  0.3237350600885947  1.0000
  C   C50       1.0  0.6961851502609334  0.24765221143931862  0.6762649404067143  1.0000
  C   C51       1.0  0.3594940905071343  0.7139663421091413  0.4528959152859355  1.0000
  C   C52       1.0  0.6405059096003508  0.28603365825035  0.5471040852082164  1.0000
  C   C53       1.0  0.3725225245409151  0.6023105190812161  0.4382622016560511  1.0000
  C   C54       1.0  0.6274774751700178  0.3976894810557205  0.5617377977021125  1.0000
  C   C55       1.0  0.3293754241771172  0.5286236723420473  0.2936794954313779  1.0000
  C   C56       1.0  0.6706245755338157  0.4713763277948893  0.7063205039267857  1.0000
  O   O1        1.0  0.7417550558627245  0.4997060384768685  0.22749623264672642  1.0000
  O   O2        1.0  0.2582449438482083  0.500293961660068  0.7725037667114371  1.0000
  O   O3        1.0  0.08666548548141821  0.990917520186459  0.2747500199184575  1.0000
  O   O4        1.0  0.9133345142295147  0.009082479950477593  0.7252499794397061  1.0000
  O   O5        1.0  0.48724956902461125  0.819748506663605  0.959524750669966  1.0000
  O   O6        1.0  0.5127504306863215  0.18025149347333141  0.040475248688197414  1.0000
  O   O7        1.0  0.2815588838692471  0.7238635018526306  0.8585635005115659  1.0000
  O   O8        1.0  0.718441116238238  0.2761364985068608  0.14143649998258603  1.0000
  Br  Br1       1.0  0.00692303801487591  0.5009631253445795  0.2530274082947443  1.0000
  Br  Br2       1.0  0.9930769620926092  0.4990368750149118  0.7469725921994076  1.0000
  Br  Br3       1.0  0.6337191870370648  0.6431517157619588  0.3860460528119685  1.0000
  Br  Br4       1.0  0.3662808126738682  0.3568482843749778  0.6139539465461951  1.0000
  Br  Br5       1.0  0.9024512250650666  0.7547751012350548  0.09821108521741809  1.0000
  Br  Br6       1.0  0.09754877504241859  0.2452248991244366  0.9017889152767339  1.0000
  Br  Br7       1.0  0.3021014678499313  0.1565072188674372  0.25637617925713696  1.0000
  Br  Br8       1.0  0.6978985320949183  0.8434927806570642  0.743623821238172  1.0000
