data_image0
_chemical_formula_structural       H56C40N24O32
_chemical_formula_sum              "H56 C40 N24 O32"
_cell_length_a       8.694246559816834
_cell_length_b       18.88657327425379
_cell_length_c       8.899838065663182
_cell_angle_alpha    90.0
_cell_angle_beta     89.85704726267657
_cell_angle_gamma    90.0

_space_group_name_H-M_alt    "P 1"
_space_group_IT_number       1

loop_
  _space_group_symop_operation_xyz
  'x, y, z'

loop_
  _atom_site_type_symbol
  _atom_site_label
  _atom_site_symmetry_multiplicity
  _atom_site_fract_x
  _atom_site_fract_y
  _atom_site_fract_z
  _atom_site_occupancy
  H   H1        1.0  0.7645108493183643  0.4236720205304765  0.46719839883297115  1.0000
  H   H2        1.0  0.23548915133688628  0.9236720201531239  0.032801600987044446  1.0000
  H   H3        1.0  0.23548915091915673  0.5763279797737718  0.5328016012966161  1.0000
  H   H4        1.0  0.7645108489006348  0.07632797962164772  0.9671983991425428  1.0000
  H   H5        1.0  0.2602524990591075  0.41304173799671  0.9908931823459973  1.0000
  H   H6        1.0  0.7397475007606841  0.9130417376193575  0.5091068180931615  1.0000
  H   H7        1.0  0.7397475011784136  0.5869582623075383  0.009106817783589898  1.0000
  H   H8        1.0  0.260252498326863  0.08695826215541416  0.4908931820174777  1.0000
  H   H9        1.0  0.00985011922081995  0.6373189548581873  0.8297444574001288  1.0000
  H   H10       1.0  0.9901498817489456  0.1373189547060632  0.6702555430579781  1.0000
  H   H11       1.0  0.9901498810167011  0.36268104491658426  0.1702555427294585  1.0000
  H   H12       1.0  0.009850118488575489  0.8626810450687085  0.32974445707160915  1.0000
  H   H13       1.0  0.09565882079195324  0.7071430129787626  0.9278588046562521  1.0000
  H   H14       1.0  0.9043411802000776  0.20714301335611512  0.5721411946783953  1.0000
  H   H15       1.0  0.9043411794455678  0.2928569867960091  0.07214119547333524  1.0000
  H   H16       1.0  0.0956588200374435  0.7928569869481332  0.42785880545119215  1.0000
  H   H17       1.0  0.782917377333152  0.7552090531660272  0.6000224247809991  1.0000
  H   H18       1.0  0.21708262250890478  0.255209053013903  0.8999775745347002  1.0000
  H   H19       1.0  0.21708262290436903  0.24479094713822117  0.39997757534858824  1.0000
  H   H20       1.0  0.7829173765786424  0.7447909467608687  0.10002242557593907  1.0000
  H   H21       1.0  0.8290058144837038  0.6667662061898069  0.6295368283179471  1.0000
  H   H22       1.0  0.170994185358353  0.1667662065671594  0.8704631709977521  1.0000
  H   H23       1.0  0.17099418575381722  0.3332337935849648  0.3704631718116401  1.0000
  H   H24       1.0  0.8290058137291941  0.833233793737089  0.1295368291128872  1.0000
  H   H25       1.0  0.9125098915176177  0.8452482484878259  0.7315564772435362  1.0000
  H   H26       1.0  0.08749010832443901  0.34524824833570167  0.7684435220721632  1.0000
  H   H27       1.0  0.08749010874216852  0.15475175181642245  0.26844352176259145  1.0000
  H   H28       1.0  0.9125098919130821  0.6547517519685466  0.23155647805742416  1.0000
  H   H29       1.0  0.03770050552075649  0.8229365785050853  0.8783082428046869  1.0000
  H   H30       1.0  0.9622994943213004  0.3229365783529611  0.6216917565110124  1.0000
  H   H31       1.0  0.9622994935667906  0.1770634212696864  0.12169175730595243  1.0000
  H   H32       1.0  0.03770050591622072  0.6770634214218105  0.3783082436185749  1.0000
  H   H33       1.0  0.2878404270002293  0.576979664429388  0.06496717762839743  1.0000
  H   H34       1.0  0.712159572482782  0.07697966427726381  0.43503282329612997  1.0000
  H   H35       1.0  0.7121595732372918  0.4230203358748603  0.9350328225011899  1.0000
  H   H36       1.0  0.287840427754739  0.9230203354975078  0.5649671768334573  1.0000
  H   H37       1.0  0.3146511249658393  0.6655449475916978  0.11858615922543636  1.0000
  H   H38       1.0  0.6853488756894113  0.16554494743957365  0.38141384059457933  1.0000
  H   H39       1.0  0.6853488752716816  0.3344550527125505  0.8814138409041511  1.0000
  H   H40       1.0  0.3146511245703751  0.834455052335198  0.6185861584115484  1.0000
  H   H41       1.0  0.4327853695939551  0.48729428183491497  0.18058876469175372  1.0000
  H   H42       1.0  0.5672146310612957  0.9872942814575624  0.31941123512826186  1.0000
  H   H43       1.0  0.5672146306435659  0.5127057184693334  0.8194112354378336  1.0000
  H   H44       1.0  0.43278536917622557  0.012705718317209194  0.6805887650013254  1.0000
  H   H45       1.0  0.5701153100853643  0.5089872667957449  0.31760105291902657  1.0000
  H   H46       1.0  0.4298846894199124  0.008987266643620737  0.1823989468820411  1.0000
  H   H47       1.0  0.4298846901521568  0.4910127335085034  0.6823989472105608  1.0000
  H   H48       1.0  0.5701153108176087  0.9910127331311508  0.8176010532475462  1.0000
  H   H49       1.0  0.6053644229168724  0.6262044108404985  0.3901253479233103  1.0000
  H   H50       1.0  0.39463557773837804  0.12620441068837432  0.10987465189670538  1.0000
  H   H51       1.0  0.3946355773206486  0.3737955894637498  0.6098746522062771  1.0000
  H   H52       1.0  0.605364422499143  0.873795589615874  0.8901253482328819  1.0000
  H   H53       1.0  0.5051271171989593  0.694126372192203  0.2990736721304552  1.0000
  H   H54       1.0  0.4948728823063174  0.19412637256955542  0.20092632767061247  1.0000
  H   H55       1.0  0.49487288303856186  0.30587362758256875  0.7009263279991321  1.0000
  H   H56       1.0  0.5051271167812298  0.8058736277346928  0.7990736724400269  1.0000
  C   C1        1.0  0.7375551638734877  0.30977959606762806  0.4193780803895651  1.0000
  C   C2        1.0  0.2624448367817627  0.8097795962197523  0.08062191943045054  1.0000
  C   C3        1.0  0.26244483636403326  0.6902204037071435  0.5806219197400221  1.0000
  C   C4        1.0  0.7375551634557583  0.1902204035550194  0.919378080699137  1.0000
  C   C5        1.0  0.6179836902368933  0.3281504182894114  0.3123056178435639  1.0000
  C   C6        1.0  0.3820163092683833  0.8281504184415355  0.18769438195750374  1.0000
  C   C7        1.0  0.3820163088506538  0.6718495814853603  0.6876943822670754  1.0000
  C   C8        1.0  0.6179836909691377  0.17184958186271276  0.8123056181720836  1.0000
  C   C9        1.0  0.5187183722018481  0.3388735662665026  0.2189766409803454  1.0000
  C   C10       1.0  0.4812816273034285  0.8388735664186269  0.28102335882072227  1.0000
  C   C11       1.0  0.48128162690796417  0.661126433508269  0.7810233580068343  1.0000
  C   C12       1.0  0.5187183729340926  0.16112643388562153  0.7189766413088651  1.0000
  C   C13       1.0  0.40319592604559956  0.34409683141722636  0.1022149275074483  1.0000
  C   C14       1.0  0.5968040734596771  0.8440968315693506  0.39778507229361937  1.0000
  C   C15       1.0  0.5968040730419475  0.6559031683575454  0.8977850726031911  1.0000
  C   C16       1.0  0.403195926777844  0.15590316820542113  0.602214927835968  1.0000
  C   C17       1.0  0.10883925480598694  0.48532411183850144  0.857378896362221  1.0000
  C   C18       1.0  0.8911607461637786  0.9853241119906256  0.6426211040958861  1.0000
  C   C19       1.0  0.8911607454315341  0.5146758879362702  0.1426211037673664  1.0000
  C   C20       1.0  0.10883925407374251  0.014675887784146024  0.3573788960337013  1.0000
  C   C21       1.0  0.9882324538817084  0.49343675926135977  0.7447581597512041  1.0000
  C   C22       1.0  0.011767545938083195  0.993436759413484  0.755241840687955  1.0000
  C   C23       1.0  0.011767546355812718  0.5065632405134118  0.2552418403783832  1.0000
  C   C24       1.0  0.9882324542994378  0.0065632403612876965  0.24475815944163243  1.0000
  C   C25       1.0  0.8904066990448424  0.5063010489592271  0.6512662662696328  1.0000
  C   C26       1.0  0.10959330192492316  0.006301048807102986  0.8487337341884743  1.0000
  C   C27       1.0  0.1095933011926787  0.4936989513450212  0.34873373385995454  1.0000
  C   C28       1.0  0.890406698312598  0.9936989509676687  0.15126626594111314  1.0000
  C   C29       1.0  0.7783256230467976  0.5279408855810003  0.5408823013283233  1.0000
  C   C30       1.0  0.22167437679525917  0.02794088595835285  0.9591176979873762  1.0000
  C   C31       1.0  0.22167437719072344  0.4720591141937713  0.4591176988012642  1.0000
  C   C32       1.0  0.7783256234422619  0.9720591143458954  0.04088230214221116  1.0000
  C   C33       1.0  0.9413872021350803  0.7384168148179339  0.767824906003664  1.0000
  C   C34       1.0  0.05861279768471116  0.23841681466580966  0.732175094435495  1.0000
  C   C35       1.0  0.05861279810244067  0.2615831854863145  0.2321750941259233  1.0000
  C   C36       1.0  0.941387201402836  0.761583185108962  0.26782490567514433  1.0000
  C   C37       1.0  0.45133239427358246  0.5933622360852949  0.22886626501995988  1.0000
  C   C38       1.0  0.5486676063816681  0.09336223593317076  0.27113373480005576  1.0000
  C   C39       1.0  0.5486676059639386  0.40663776368947674  0.7711337351096275  1.0000
  C   C40       1.0  0.4513323938781182  0.906637763841601  0.728866264206072  1.0000
  N   N1        1.0  0.01793970352634798  0.6901316337658919  0.8491210762958027  1.0000
  N   N2        1.0  0.9820602962934436  0.19013163361376775  0.6508789241433564  1.0000
  N   N3        1.0  0.982060296711173  0.3098683665383564  0.15087892383378462  1.0000
  N   N4        1.0  0.0179397039440775  0.8098683666904806  0.34912107598623104  1.0000
  N   N5        1.0  0.8459698824251108  0.7186786492657856  0.6583501774780651  1.0000
  N   N6        1.0  0.15403011741694603  0.2186786491136614  0.8416498218376341  1.0000
  N   N7        1.0  0.15403011781241027  0.2813213510384628  0.3416498226515222  1.0000
  N   N8        1.0  0.8459698828428404  0.7813213506611102  0.15835017716849345  1.0000
  N   N9        1.0  0.9602848898982591  0.807091773009959  0.798776273988102  1.0000
  N   N10       1.0  0.03971510994379767  0.30709177338731153  0.7012237253275972  1.0000
  N   N11       1.0  0.03971510918928793  0.19290822676481262  0.2012237261225373  1.0000
  N   N12       1.0  0.9602848902937233  0.6929082269169368  0.29877627480199004  1.0000
  N   N13       1.0  0.3453339285569645  0.6131950741846562  0.12970309959299137  1.0000
  N   N14       1.0  0.6546660709483122  0.1131950740325321  0.3702969002080763  1.0000
  N   N15       1.0  0.6546660705305826  0.38680492611959205  0.870296900517648  1.0000
  N   N16       1.0  0.3453339293114742  0.8868049257422397  0.6297030987980514  1.0000
  N   N17       1.0  0.4864505256508743  0.5247777061554642  0.24441383770383776  1.0000
  N   N18       1.0  0.5135494738544023  0.024777706003340054  0.2555861620972299  1.0000
  N   N19       1.0  0.5135494734366729  0.47522229361930746  0.7555861624068015  1.0000
  N   N20       1.0  0.4864505263831187  0.9752222937714315  0.7444138380323575  1.0000
  N   N21       1.0  0.5230696185381214  0.641603875093576  0.31440165378097296  1.0000
  N   N22       1.0  0.4769303821171291  0.14160387494145182  0.1855983460390427  1.0000
  N   N23       1.0  0.4769303816993996  0.35839612468119564  0.6855983463486144  1.0000
  N   N24       1.0  0.5230696181203919  0.8583961248333198  0.8144016540905447  1.0000
  O   O1        1.0  0.8130257632398643  0.35980507852441485  0.4844823168178023  1.0000
  O   O2        1.0  0.18697423626541232  0.8598050786765391  0.015517682983265418  1.0000
  O   O3        1.0  0.18697423699765678  0.6401949212503568  0.5155176833117852  1.0000
  O   O4        1.0  0.8130257639721088  0.14019492162770933  0.984482317146322  1.0000
  O   O5        1.0  0.7628505470138395  0.24541950690010145  0.44271252657333315  1.0000
  O   O6        1.0  0.23714945364141105  0.7454195070522256  0.05728747324668244  1.0000
  O   O7        1.0  0.23714945322368156  0.7545804928746702  0.5572874735562541  1.0000
  O   O8        1.0  0.76285054659611  0.25458049272254607  0.9427125268829049  1.0000
  O   O9        1.0  0.36996093923111284  0.2907327528538629  0.02835817983804482  1.0000
  O   O10       1.0  0.6300390602741637  0.7907327524765104  0.47164181996302285  1.0000
  O   O11       1.0  0.6300390610064082  0.7092672474503854  0.9716418202915423  1.0000
  O   O12       1.0  0.3699609399633574  0.20926724729826127  0.5283581801665644  1.0000
  O   O13       1.0  0.34314355988990297  0.4075763299260615  0.08611291064415202  1.0000
  O   O14       1.0  0.6568564407653477  0.9075763300781857  0.41388708917586364  1.0000
  O   O15       1.0  0.656856440347618  0.5924236698487101  0.9138870894854354  1.0000
  O   O16       1.0  0.34314355949443875  0.09242367022606261  0.5861129098302641  1.0000
  O   O17       1.0  0.1587451377830178  0.421916819652126  0.8788281364238159  1.0000
  O   O18       1.0  0.8412548620367738  0.9219168198042502  0.6211718640153433  1.0000
  O   O19       1.0  0.8412548624545033  0.5780831801226457  0.12117186370577153  1.0000
  O   O20       1.0  0.15874513820074732  0.07808318049999816  0.37882813611424415  1.0000
  O   O21       1.0  0.1524924313807233  0.5406587707427007  0.9216761038804692  1.0000
  O   O22       1.0  0.8475075684613335  0.0406587705905766  0.5783238954352303  1.0000
  O   O23       1.0  0.8475075688567978  0.4593412290320709  0.07832389624911826  1.0000
  O   O24       1.0  0.15249243062621357  0.959341229184195  0.42167610467540906  1.0000
  O   O25       1.0  0.7205105538117856  0.48001531926167756  0.45156122908683055  1.0000
  O   O26       1.0  0.2794894468211997  0.980015318884325  0.04843877185664472  1.0000
  O   O27       1.0  0.2794894464257355  0.5199846810425708  0.5484387710427567  1.0000
  O   O28       1.0  0.7205105534163214  0.01998468089044664  0.9515612282729425  1.0000
  O   O29       1.0  0.7411594029875382  0.5914684521002055  0.532104113673465  1.0000
  O   O30       1.0  0.25884059683225336  0.091468452477558  0.9678958867656942  1.0000
  O   O31       1.0  0.2588405972499829  0.4085315476745661  0.46789588645612235  1.0000
  O   O32       1.0  0.7411594034052678  0.9085315478266904  0.03210411336389325  1.0000
