data_image0
_chemical_formula_structural       H66C58N8O6F24P4
_chemical_formula_sum              "H66 C58 N8 O6 F24 P4"
_cell_length_a       11.503138967769166
_cell_length_b       12.77034769780778
_cell_length_c       13.24544813652662
_cell_angle_alpha    61.939242338671754
_cell_angle_beta     81.08341999440444
_cell_angle_gamma    76.49121071579295

_space_group_name_H-M_alt    "P 1"
_space_group_IT_number       1

loop_
  _space_group_symop_operation_xyz
  'x, y, z'

loop_
  _atom_site_type_symbol
  _atom_site_label
  _atom_site_symmetry_multiplicity
  _atom_site_fract_x
  _atom_site_fract_y
  _atom_site_fract_z
  _atom_site_occupancy
  H   H1        1.0  0.09689679210641362  0.11566988416597117  0.6992840088799421  1.0000
  H   H2        1.0  0.9031032074845539  0.8843301156502282  0.30071599168028784  1.0000
  H   H3        1.0  0.11516051758868501  0.11367795127550218  0.8845279696952368  1.0000
  H   H4        1.0  0.8848394820482028  0.8863220489467326  0.11547203000826611  1.0000
  H   H5        1.0  0.7577068940593337  0.27714778842606835  0.8933911182000327  1.0000
  H   H6        1.0  0.24229310640065338  0.7228522113924535  0.1066088823585318  1.0000
  H   H7        1.0  0.7246281186417316  0.2858623737603919  0.7093697861355927  1.0000
  H   H8        1.0  0.2753718809951563  0.7141376264618428  0.29063021356791036  1.0000
  H   H9        1.0  0.026464820201763915  0.13329376219858277  0.0425334439155003  1.0000
  H   H10       1.0  0.9735351793892035  0.8667062376176166  0.9574665566447296  1.0000
  H   H11       1.0  0.8734424792967793  0.2062244312551797  0.04541858481157374  1.0000
  H   H12       1.0  0.1265575202941882  0.7937755685610197  0.9545814157486562  1.0000
  H   H13       1.0  0.18604322587739167  0.2525481889429609  0.9610745243420763  1.0000
  H   H14       1.0  0.813956773759496  0.7474518112792738  0.03892547536142661  1.0000
  H   H15       1.0  0.25010096431614737  0.4512311310451746  0.8723945289865158  1.0000
  H   H16       1.0  0.7498990361897601  0.5487688691793827  0.12760547071532177  1.0000
  H   H17       1.0  0.8807633678421422  0.6304088909012694  0.8359800825437211  1.0000
  H   H18       1.0  0.11923663200512717  0.36959110851458016  0.16401991716197503  1.0000
  H   H19       1.0  0.8166746801441622  0.43172901874931485  0.927185059698779  1.0000
  H   H20       1.0  0.18332531944680516  0.5682709810668846  0.07281494086145099  1.0000
  H   H21       1.0  0.19682902429712337  0.6708044649657084  0.8090271440976771  1.0000
  H   H22       1.0  0.803170976208784  0.329195535258849  0.19097285560416039  1.0000
  H   H23       1.0  0.044398269023455866  0.7434134248966711  0.805196119554766  1.0000
  H   H24       1.0  0.9556017314824515  0.2565865753278863  0.19480388014707148  1.0000
  H   H25       1.0  0.964744430173349  0.8575285319985859  0.6391874172334376  1.0000
  H   H26       1.0  0.035255570286637936  0.142471467819936  0.3608125833251268  1.0000
  H   H27       1.0  0.951356824769646  0.9152894062676057  0.4327288244112561  1.0000
  H   H28       1.0  0.048643174867241804  0.08471059395462925  0.5672711752922468  1.0000
  H   H29       1.0  0.741729172585671  0.37008281294835355  0.531734039623003  1.0000
  H   H30       1.0  0.2582708278743161  0.6299171868701683  0.46826596093556144  1.0000
  H   H31       1.0  0.2587990115518291  0.5852307554320283  0.6702588876017542  1.0000
  H   H32       1.0  0.7412009880391384  0.41476924438417123  0.32974111295847564  1.0000
  H   H33       1.0  0.8187984667049705  0.5923309513947066  0.5804778784679683  1.0000
  H   H34       1.0  0.18120153293191735  0.40766904882752836  0.41952212123553473  1.0000
  H   H35       1.0  0.9872299914560132  0.46192028844333455  0.7024379821137655  1.0000
  H   H36       1.0  0.012770008180874644  0.5380797117789002  0.29756201758973744  1.0000
  H   H37       1.0  0.7371783475550236  0.7645441015731431  0.4218767801470067  1.0000
  H   H38       1.0  0.26282165208186414  0.23545589864909183  0.5781232195564961  1.0000
  H   H39       1.0  0.6667655383583108  0.6379356559743868  0.46390321127882084  1.0000
  H   H40       1.0  0.33323446210167634  0.3620643438441352  0.5360967892797436  1.0000
  H   H41       1.0  0.6156410165961036  0.7207865258175763  0.2583995328471899  1.0000
  H   H42       1.0  0.3843589830407842  0.2792134744046586  0.741600466856313  1.0000
  H   H43       1.0  0.5419270283642537  0.8089622838282831  0.3295833753605305  1.0000
  H   H44       1.0  0.4580729712267137  0.19103771598791644  0.6704166251996994  1.0000
  H   H45       1.0  0.590066268763077  0.8861037622648061  0.0806617764744671  1.0000
  H   H46       1.0  0.4099337317428305  0.11389623795975112  0.9193382232273705  1.0000
  H   H47       1.0  0.5188391431104149  0.9880794999735331  0.13853329946026832  1.0000
  H   H48       1.0  0.4811608573954926  0.011920500251024275  0.8614667002415692  1.0000
  H   H49       1.0  0.6085185354729146  0.10781054856811799  0.9539051354444306  1.0000
  H   H50       1.0  0.39148146503299286  0.8921894516564393  0.0460948642574069  1.0000
  H   H51       1.0  0.6971474755034488  0.09373912902190837  0.0599234021712688  1.0000
  H   H52       1.0  0.302852524133439  0.9062608712003266  0.9400765975322343  1.0000
  H   H53       1.0  0.7528961361968866  0.965848331921708  0.9266946235967308  1.0000
  H   H54       1.0  0.2471038633940808  0.03415166789449147  0.07330537696349916  1.0000
  H   H55       1.0  0.6034700603393786  0.7133603187922761  0.9479565599186953  1.0000
  H   H56       1.0  0.3965299392515889  0.2866396810239231  0.0520434406415346  1.0000
  H   H57       1.0  0.6042198765110579  0.6587711296399055  0.8459610476301128  1.0000
  H   H58       1.0  0.39578012307990956  0.341228870176294  0.15403895293011713  1.0000
  H   H59       1.0  0.5984594756927584  0.5579344970388642  0.9956943988833595  1.0000
  H   H60       1.0  0.4015405247672287  0.4420655027796576  0.004305601675204966  1.0000
  H   H61       1.0  0.4204030250076517  0.9916472476632225  0.5714225895705529  1.0000
  H   H62       1.0  0.5795969754982557  0.00835275256133475  0.42857741013128464  1.0000
  H   H63       1.0  0.3970838535994667  0.8704036859005241  0.5490347447488609  1.0000
  H   H64       1.0  0.6029161468605204  0.12959631391799792  0.4509652558097036  1.0000
  H   H65       1.0  0.45266902900904915  0.840309696581721  0.6806752367037736  1.0000
  H   H66       1.0  0.5473309714968584  0.15969030364283607  0.319324762998064  1.0000
  C   C1        1.0  0.9097265058892712  0.20628022023268677  0.6844448669003291  1.0000
  C   C2        1.0  0.09027349374761671  0.793719779989548  0.3155551328031739  1.0000
  C   C3        1.0  0.01880916737800046  0.15262913373577486  0.7379856031179135  1.0000
  C   C4        1.0  0.9811908322588873  0.8473708664864601  0.2620143965855894  1.0000
  C   C5        1.0  0.031080086175179662  0.14949716058614831  0.8414328545170137  1.0000
  C   C6        1.0  0.9689199136261694  0.8505028384236658  0.15856714604540928  1.0000
  C   C7        1.0  0.8290052471375046  0.24302234224191982  0.8461733329584709  1.0000
  C   C8        1.0  0.17099475249938337  0.7569776579803149  0.15382666674503218  1.0000
  C   C9        1.0  0.8130272235700908  0.24794332310598388  0.7430497338069663  1.0000
  C   C10       1.0  0.1869727760667968  0.7520566771162511  0.2569502658965367  1.0000
  C   C11       1.0  0.9578920652110621  0.2097547354980842  0.9935893709971259  1.0000
  C   C12       1.0  0.04210793442582573  0.7902452647241506  0.006410628706377084  1.0000
  C   C13       1.0  0.9973868819572485  0.3292445968466362  0.9497137843172354  1.0000
  C   C14       1.0  0.0026131176796394826  0.6707554033755986  0.05028621538626748  1.0000
  C   C15       1.0  0.11915101201390069  0.3353238428942688  0.9343608650360394  1.0000
  C   C16       1.0  0.8808489876229871  0.6646761573279661  0.06563913466746349  1.0000
  C   C17       1.0  0.155047430749695  0.44696056631666387  0.8839884157818785  1.0000
  C   C18       1.0  0.8449525688871927  0.5530394339055712  0.11601158392162444  1.0000
  C   C19       1.0  0.06945061593066626  0.5536192739853901  0.8476167056631305  1.0000
  C   C20       1.0  0.9305493845293208  0.44638072583313176  0.15238329489543395  1.0000
  C   C21       1.0  0.9476509358873785  0.5475724603701707  0.8634460875688403  1.0000
  C   C22       1.0  0.052349064618529  0.45242753985438655  0.13655391213299725  1.0000
  C   C23       1.0  0.9117637381065549  0.4360216350761267  0.9146277026054832  1.0000
  C   C24       1.0  0.08823626239935262  0.5639783651484306  0.08537229709635433  1.0000
  C   C25       1.0  0.10731854576935305  0.6749566117901981  0.7868841472351663  1.0000
  C   C26       1.0  0.8926814538675348  0.32504338843203673  0.21311585246833675  1.0000
  C   C27       1.0  0.025911125890272526  0.8105372267036373  0.5962213804195706  1.0000
  C   C28       1.0  0.9740888745697145  0.18946277311488463  0.4037786201389938  1.0000
  C   C29       1.0  0.019856653116687703  0.8401643747607469  0.4822548654250789  1.0000
  C   C30       1.0  0.9801433473432993  0.15983562505777504  0.5177451351334855  1.0000
  C   C31       1.0  0.898846601819063  0.22561553410552568  0.5673485923775182  1.0000
  C   C32       1.0  0.10115339868684448  0.7743844661190316  0.4326514073243193  1.0000
  C   C33       1.0  0.8088988465859357  0.3162019758558305  0.4993377060226835  1.0000
  C   C34       1.0  0.19110115305095232  0.6837980243664044  0.5006622936808194  1.0000
  C   C35       1.0  0.19307292664210243  0.6572378395697944  0.6140318392578373  1.0000
  C   C36       1.0  0.8069270729947855  0.3427621606524403  0.3859681604456657  1.0000
  C   C37       1.0  0.8977059155818836  0.5536352529525017  0.5437548490896921  1.0000
  C   C38       1.0  0.10229408492402388  0.4463647472720558  0.4562451506121455  1.0000
  C   C39       1.0  0.9923889093190676  0.47925393678477335  0.6132523404827188  1.0000
  C   C40       1.0  0.007611090528201702  0.5207460626310764  0.3867476592229772  1.0000
  C   C41       1.0  0.9049589100212607  0.574876134828004  0.4289881204700912  1.0000
  C   C42       1.0  0.09504108956970679  0.42512386498819554  0.5710118800901387  1.0000
  C   C43       1.0  0.7124464549231164  0.7052849492854836  0.3922884929227657  1.0000
  C   C44       1.0  0.2875535455827911  0.29471505093907374  0.6077115067790719  1.0000
  C   C45       1.0  0.6297428211049887  0.7779724893470281  0.29537238587902487  1.0000
  C   C46       1.0  0.37025717848597867  0.2220275104691714  0.704627614681205  1.0000
  C   C47       1.0  0.6064254125883023  0.946418540750136  0.11365245564917383  1.0000
  C   C48       1.0  0.3935745879176051  0.05358145947442133  0.8863475440526638  1.0000
  C   C49       1.0  0.6699934877689795  0.04361743623858723  0.02191350700992869  1.0000
  C   C50       1.0  0.33000651186790825  0.9563825639836475  0.9780864926935743  1.0000
  C   C51       1.0  0.4395902711359887  0.6783615007705972  0.9338438480955032  1.0000
  C   C52       1.0  0.5604097284549787  0.3216384990456023  0.06615615246472653  1.0000
  C   C53       1.0  0.5688662803812334  0.6506391873461607  0.9306317755974266  1.0000
  C   C54       1.0  0.4311337202891353  0.349360811665976  0.06936822496333095  1.0000
  C   C55       1.0  0.2709504659750364  0.9169658460834713  0.6595856570059897  1.0000
  C   C56       1.0  0.7290495336159312  0.0830341537327281  0.3404143435542402  1.0000
  C   C57       1.0  0.3921900007546584  0.9037527630213372  0.6124866002014061  1.0000
  C   C58       1.0  0.6078099997512492  0.09624723720322015  0.38751339950043134  1.0000
  N   N1        1.0  0.9373754679429566  0.19643378501368294  0.8923979026193719  1.0000
  N   N2        1.0  0.06262453169393133  0.8035662152085519  0.10760209708413102  1.0000
  N   N3        1.0  0.11006280671313043  0.7182792860372164  0.6607114311858937  1.0000
  N   N4        1.0  0.8899371937468566  0.28172071378130564  0.33928856937267077  1.0000
  N   N5        1.0  0.33527212730111255  0.7005675476385758  0.9363706714106443  1.0000
  N   N6        1.0  0.6647278733692561  0.29943245137356117  0.06362932915011316  1.0000
  N   N7        1.0  0.17273693894181288  0.927875939431745  0.6968124745376448  1.0000
  N   N8        1.0  0.8272630606950749  0.0721240607904898  0.3031875251658582  1.0000
  O   O1        1.0  0.8182161262329656  0.6464496408950252  0.35244375124943794  1.0000
  O   O2        1.0  0.18178387340392227  0.35355035932720985  0.6475562484540649  1.0000
  O   O3        1.0  0.6793857978716071  0.8788848702043371  0.2097281141113606  1.0000
  O   O4        1.0  0.32061420171936  0.12111512961186265  0.7902718864488693  1.0000
  O   O5        1.0  0.7773150008374392  0.9957002407689839  0.9744581008720298  1.0000
  O   O6        1.0  0.22268499966846828  0.004299759455573439  0.025541898829807754  1.0000
  F   F1        1.0  0.2300025658308027  0.00034588663896033164  0.4100673304206613  1.0000
  F   F2        1.0  0.769997434839566  0.9996541123731765  0.5899326701400963  1.0000
  F   F3        1.0  0.31807546582226154  0.10723093068383098  0.13650156393071192  1.0000
  F   F4        1.0  0.6819245337687059  0.8927690691323685  0.863498436629518  1.0000
  F   F5        1.0  0.41032207396160136  0.042551222742662216  0.30562783144618894  1.0000
  F   F6        1.0  0.5896779256752864  0.9574487774795727  0.694372168257314  1.0000
  F   F7        1.0  0.3104578470076185  0.9166938941526788  0.28632836481211943  1.0000
  F   F8        1.0  0.6895421526292692  0.0833061060695561  0.7136716348913835  1.0000
  F   F9        1.0  0.24016972035371092  0.19079912505557828  0.2608948575706928  1.0000
  F   F10       1.0  0.7598302792831768  0.8092008751666565  0.7391051421328101  1.0000
  F   F11       1.0  0.1392862655952216  0.06543914533724585  0.240520764295416  1.0000
  F   F12       1.0  0.8607137339957459  0.9345608544789534  0.7594792362648138  1.0000
  F   F13       1.0  0.4317978906431321  0.5440503350872733  0.796864997260291  1.0000
  F   F14       1.0  0.5682021089937556  0.4559496651349615  0.20313500244321195  1.0000
  F   F15       1.0  0.6200638578269252  0.47082340508127  0.6169591551161586  1.0000
  F   F16       1.0  0.37993614288936384  0.5291765943369021  0.383040844587872  1.0000
  F   F17       1.0  0.4181885707841767  0.4756260862316095  0.6658076844069887  1.0000
  F   F18       1.0  0.5818114288527111  0.5243739139906253  0.3341923152965142  1.0000
  F   F19       1.0  0.4980426346501862  0.6473233839261533  0.6077275773247233  1.0000
  F   F20       1.0  0.5019573649867016  0.3526766162960816  0.3922724223787796  1.0000
  F   F21       1.0  0.5545366717739668  0.36732434272380243  0.8072406664004832  1.0000
  F   F22       1.0  0.44546332781700054  0.632675657092397  0.1927593341597467  1.0000
  F   F23       1.0  0.6362340054617168  0.5380037923323027  0.748400697990731  1.0000
  F   F24       1.0  0.3637659949982702  0.46199620748621917  0.2515993025678335  1.0000
  P   P1        1.0  0.2751515990574256  0.05296371032489965  0.2751200994948144  1.0000
  P   P2        1.0  0.7248484016588633  0.9470362890932725  0.7248799002092163  1.0000
  P   P3        1.0  0.5268352912813452  0.507533949781326  0.7069748349757162  1.0000
  P   P4        1.0  0.47316470856592413  0.49246604963452356  0.2930251647299799  1.0000
