data_image0
_chemical_formula_structural       H28C26N2O8S2
_chemical_formula_sum              "H28 C26 N2 O8 S2"
_cell_length_a       5.22205065087023
_cell_length_b       10.620339984155073
_cell_length_c       12.085039162639791
_cell_angle_alpha    68.6705213934226
_cell_angle_beta     78.4307970382713
_cell_angle_gamma    83.4646930944127

_space_group_name_H-M_alt    "P 1"
_space_group_IT_number       1

loop_
  _space_group_symop_operation_xyz
  'x, y, z'

loop_
  _atom_site_type_symbol
  _atom_site_label
  _atom_site_symmetry_multiplicity
  _atom_site_fract_x
  _atom_site_fract_y
  _atom_site_fract_z
  _atom_site_occupancy
  H   H1        1.0  0.693809123036444  0.6620700188472045  0.82688480250105  1.0000
  H   H2        1.0  0.3061908774154691  0.33792998120790174  0.1731151969961634  1.0000
  H   H3        1.0  0.04095905806526999  0.824620589565354  0.7179401549051305  1.0000
  H   H4        1.0  0.9590409423866432  0.17537941048975222  0.28205984459208294  1.0000
  H   H5        1.0  0.04915160762814606  0.7273873297334822  0.3979999963664497  1.0000
  H   H6        1.0  0.9508483928237669  0.27261267032162395  0.6020000031307636  1.0000
  H   H7        1.0  0.7029892171320039  0.5728022351197787  0.5065558786385514  1.0000
  H   H8        1.0  0.29701078331990916  0.4271977649353275  0.4934441208586619  1.0000
  H   H9        1.0  0.40385183548597836  0.7810322919656123  0.28973831923748544  1.0000
  H   H10       1.0  0.5961481646214237  0.2189677077426555  0.7102616811614445  1.0000
  H   H11       1.0  0.46922185552405815  0.9508909588152105  0.19308200473836945  1.0000
  H   H12       1.0  0.5307781445833439  0.04910904089305756  0.8069179956605603  1.0000
  H   H13       1.0  0.14174041123779987  0.9071138110552251  0.26605706521737754  1.0000
  H   H14       1.0  0.8582595886926927  0.09288618960335415  0.7339429351744349  1.0000
  H   H15       1.0  0.22161021542534398  0.3928095778450421  0.7302496973385957  1.0000
  H   H16       1.0  0.7783897850265689  0.6071904222100641  0.26975030215861784  1.0000
  H   H17       1.0  0.9889277805084802  0.592533658220776  0.028004187542639575  1.0000
  H   H18       1.0  0.011072219943432915  0.4074663418343301  0.971995811954574  1.0000
  H   H19       1.0  0.3307209115543766  0.5897337810800714  0.03834614062450826  1.0000
  H   H20       1.0  0.6692790888975364  0.4102662189750349  0.961653858872705  1.0000
  H   H21       1.0  0.2112298227971452  0.706714831183009  0.9069119466569794  1.0000
  H   H22       1.0  0.7887701776547678  0.29328516887209716  0.093088052840234  1.0000
  H   H23       1.0  0.7266835244929493  0.9341270889305939  0.04412765904897173  1.0000
  H   H24       1.0  0.2733164756144526  0.06587291077767399  0.9558723413499581  1.0000
  H   H25       1.0  0.6649291271668428  0.775141794919517  0.0327043708555499  1.0000
  H   H26       1.0  0.3350708729405591  0.22485820478875101  0.96729562954338  1.0000
  H   H27       1.0  0.8723532876657399  0.8957490076201593  0.9115687029206979  1.0000
  H   H28       1.0  0.1276467127861731  0.10425099243494673  0.08843129657651548  1.0000
  C   C1        1.0  0.46467733411603496  0.5105160119447844  0.742360708315482  1.0000
  C   C2        1.0  0.5353226661589686  0.48948398906063323  0.2576392911746141  1.0000
  C   C3        1.0  0.6746624545268562  0.606809282674428  0.6741263168277092  1.0000
  C   C4        1.0  0.3253375455805458  0.39319071703384  0.32587368357122065  1.0000
  C   C5        1.0  0.7733722538733108  0.6783351608364528  0.7325250692417049  1.0000
  C   C6        1.0  0.22662774657860224  0.3216648392186533  0.2674749302555084  1.0000
  C   C7        1.0  0.9682262901828935  0.7693033470237723  0.6711574288692007  1.0000
  C   C8        1.0  0.03177371026901954  0.23069665303133374  0.32884257062801275  1.0000
  C   C9        1.0  0.07580408598802739  0.7914551617337271  0.5486116026838037  1.0000
  C   C10       1.0  0.9241959144638856  0.2085448383213792  0.45138839681340964  1.0000
  C   C11       1.0  0.9761009325772083  0.717457472841102  0.49111540063495435  1.0000
  C   C12       1.0  0.02389906787470462  0.28254252721400425  0.508884598862259  1.0000
  C   C13       1.0  0.7779865505515648  0.6278065354585572  0.5528565780136451  1.0000
  C   C14       1.0  0.22201344955583718  0.37219346424971056  0.4471434223852848  1.0000
  C   C15       1.0  0.28219727496541036  0.8878241138726725  0.49134034088016915  1.0000
  C   C16       1.0  0.7178027254865025  0.11217588618243364  0.5086596586170442  1.0000
  C   C17       1.0  0.34824681349433056  0.8877945265399916  0.27537359094466174  1.0000
  C   C18       1.0  0.6517531866130715  0.11220547316827639  0.7246264094542681  1.0000
  C   C19       1.0  0.40228526143399546  0.9588185415033209  0.5442170030406215  1.0000
  C   C20       1.0  0.5977147388410083  0.04118145950209665  0.4557829964494744  1.0000
  C   C21       1.0  0.39943021189977074  0.9792129760413589  0.6561150539182483  1.0000
  C   C22       1.0  0.6005697885521423  0.020787024013747272  0.34388494557896515  1.0000
  C   C23       1.0  0.16222807868269332  0.6523447247773952  0.00421862774388032  1.0000
  C   C24       1.0  0.8377719198512976  0.34765527529858437  0.995781371750224  1.0000
  C   C25       1.0  0.8064298554364615  0.8533196099248435  0.00931790675616172  1.0000
  C   C26       1.0  0.19357014501545144  0.14668039013026263  0.9906820927410517  1.0000
  N   N1        1.0  0.4008806754679534  0.9269785944849896  0.37131418854004467  1.0000
  N   N2        1.0  0.5991193227215266  0.07302140524415175  0.6286858118557761  1.0000
  O   O1        1.0  0.37123813227307806  0.4552187684812383  0.6766034715519739  1.0000
  O   O2        1.0  0.6287618662609128  0.5447812315947412  0.3233965279421305  1.0000
  O   O3        1.0  0.3844487384184222  0.4837262917325759  0.8516548535207152  1.0000
  O   O4        1.0  0.6155512601155688  0.5162737083434037  0.14834514597338905  1.0000
  O   O5        1.0  0.2665127267427401  0.934893736053592  0.7589260257537191  1.0000
  O   O6        1.0  0.7334872735322635  0.0651062649518256  0.2410739737363767  1.0000
  O   O7        1.0  0.0011390858391246098  0.7045426650915274  0.20933670651971434  1.0000
  O   O8        1.0  0.9988609146127884  0.29545733496357873  0.7906632929774992  1.0000
  S   S1        1.0  0.09172240771346526  0.7771411729241978  0.07461837377758478  1.0000
  S   S2        1.0  0.9082775927384475  0.2228588271309082  0.9253816257196288  1.0000
