data_image0
_chemical_formula_structural       H64C60N12O4Br4
_chemical_formula_sum              "H64 C60 N12 O4 Br4"
_cell_length_a       11.058500500941841
_cell_length_b       5.369237724272136
_cell_length_c       24.468774508272613
_cell_angle_alpha    90.0
_cell_angle_beta     101.02214385765654
_cell_angle_gamma    90.0

_space_group_name_H-M_alt    "P 1"
_space_group_IT_number       1

loop_
  _space_group_symop_operation_xyz
  'x, y, z'

loop_
  _atom_site_type_symbol
  _atom_site_label
  _atom_site_symmetry_multiplicity
  _atom_site_fract_x
  _atom_site_fract_y
  _atom_site_fract_z
  _atom_site_occupancy
  H   H1        1.0  0.7908652897681037  0.008362781144335897  0.20194710830469018  1.0000
  H   H2        1.0  0.7091347098762674  0.5083627807465015  0.29805289178047534  1.0000
  H   H3        1.0  0.20913471046954077  0.991637219922457  0.7980528916952273  1.0000
  H   H4        1.0  0.290865289457239  0.49163721845782965  0.7019471082197811  1.0000
  H   H5        1.0  0.5948582932584842  0.00780144447891407  0.22493248981547842  1.0000
  H   H6        1.0  0.9051417072900249  0.5078014440810796  0.2750675102693481  1.0000
  H   H7        1.0  0.4051417069791602  0.9921985565878788  0.7750675101844391  1.0000
  H   H8        1.0  0.09485829294761956  0.4921985569857133  0.7249324897305693  1.0000
  H   H9        1.0  0.9694262903711424  0.7589892214266675  0.19521677564457393  1.0000
  H   H10       1.0  0.5305737101773668  0.25898921996204016  0.30478322444025263  1.0000
  H   H11       1.0  0.030573709866502038  0.2410107796401254  0.8047832243553436  1.0000
  H   H12       1.0  0.46942629006027775  0.741010779242291  0.6952167755596649  1.0000
  H   H13       1.0  0.06650787046155106  0.41353987549526894  0.15164938325221938  1.0000
  H   H14       1.0  0.4334921296572712  0.9135398750974345  0.3483506167477393  1.0000
  H   H15       1.0  0.9334921297760933  0.5864601255715239  0.848350616747698  1.0000
  H   H16       1.0  0.5665078705803733  0.0864601259693584  0.6516493832521781  1.0000
  H   H17       1.0  0.9370475522932707  0.11058753225170204  0.08994317587839917  1.0000
  H   H18       1.0  0.5629524471742269  0.6105875318538676  0.41005682379040187  1.0000
  H   H19       1.0  0.06295244794437362  0.8894124688150908  0.9100568241215183  1.0000
  H   H20       1.0  0.43704755215927965  0.3894124692129253  0.5899431762098547  1.0000
  H   H21       1.0  0.7082178903244989  0.17669632426800602  0.06546745089680382  1.0000
  H   H22       1.0  0.7917821093198721  0.6766963238701716  0.43453254918836176  1.0000
  H   H23       1.0  0.2917821090090076  0.8233036749363251  0.9345325491034527  1.0000
  H   H24       1.0  0.20821789091777224  0.32330367533415955  0.5654674508115557  1.0000
  H   H25       1.0  0.44665609596942235  0.7506802300407353  0.25935845810205366  1.0000
  H   H26       1.0  0.05334390414939987  0.25068022857610783  0.2406415418979051  1.0000
  H   H27       1.0  0.553343904268222  0.2493197710260577  0.7406415418978638  1.0000
  H   H28       1.0  0.9466560960882446  0.7493197706282233  0.7593584581020124  1.0000
  H   H29       1.0  0.28882925460080633  0.416295089691341  0.24400421293713764  1.0000
  H   H30       1.0  0.21117074461387791  0.9162950892935066  0.2559957870631601  1.0000
  H   H31       1.0  0.7111707447327  0.5837049095129901  0.7559957870631188  1.0000
  H   H32       1.0  0.7888292547196285  0.0837049099108246  0.7440042129370962  1.0000
  H   H33       1.0  0.2711109951639524  0.13779103999353898  0.16002643890842855  1.0000
  H   H34       1.0  0.22888900495486983  0.6377910395957046  0.3399735610915302  1.0000
  H   H35       1.0  0.728889005073692  0.8622089592107922  0.8399735610914889  1.0000
  H   H36       1.0  0.7711109952827746  0.3622089596086266  0.6600264389083873  1.0000
  H   H37       1.0  0.41175920269864114  0.20408614709801234  0.09340869631403902  1.0000
  H   H38       1.0  0.08824079742018108  0.7040861485626396  0.40659130368591967  1.0000
  H   H39       1.0  0.5882407975390033  0.7959138521063188  0.9065913036858784  1.0000
  H   H40       1.0  0.9117592028174634  0.29591385250415325  0.5934086963139977  1.0000
  H   H41       1.0  0.3679934423658853  0.7412407467094453  0.06701174321513678  1.0000
  H   H42       1.0  0.1320065577529369  0.24124074710727966  0.432988256784822  1.0000
  H   H43       1.0  0.6320065578717591  0.2587592543573477  0.9329882567847807  1.0000
  H   H44       1.0  0.8679934424847076  0.7587592539595132  0.5670117432150955  1.0000
  H   H45       1.0  0.410004517571755  0.9350005061808945  0.01597184858500489  1.0000
  H   H46       1.0  0.08999548254706728  0.4350005065787288  0.48402815141495387  1.0000
  H   H47       1.0  0.5899954826658895  0.06499949302343674  0.9840281514149125  1.0000
  H   H48       1.0  0.9100045167864391  0.5649994926256022  0.5159718485853027  1.0000
  H   H49       1.0  0.773421395423838  0.7097691694246255  0.02203433581219038  1.0000
  H   H50       1.0  0.726578605124671  0.20976916982245994  0.4779656642726361  1.0000
  H   H51       1.0  0.22657860481380643  0.2902308316421674  0.9779656641877271  1.0000
  H   H52       1.0  0.27342139511297336  0.790230831244333  0.5220343357272813  1.0000
  H   H53       1.0  0.9335986450475098  0.7057496509923464  0.035288884939048776  1.0000
  H   H54       1.0  0.5664013545968613  0.20574965139018087  0.46471111514611674  1.0000
  H   H55       1.0  0.06640135428599671  0.2942503482119847  0.9647111150612078  1.0000
  H   H56       1.0  0.4335986456407831  0.7942503478141503  0.5352888848538008  1.0000
  H   H57       1.0  0.8546995207055246  0.8491405305802621  0.9780234415918561  1.0000
  H   H58       1.0  0.6453004787468041  0.3491405309780965  0.5219765584083591  1.0000
  H   H59       1.0  0.14530047862798187  0.1508594704865308  0.02197655840840045  1.0000
  H   H60       1.0  0.35469952058670234  0.6508594700886964  0.4780234415918973  1.0000
  H   H61       1.0  0.85237648437471  0.5321410778822103  0.9824241822010286  1.0000
  H   H62       1.0  0.6476235150776186  0.03214107828004475  0.5175758177991867  1.0000
  H   H63       1.0  0.14762351495879641  0.4678589213221208  0.017575817799227924  1.0000
  H   H64       1.0  0.3523764842558878  0.9678589227867481  0.48242418220106986  1.0000
  C   C1        1.0  0.7129080383639425  0.5007329397702289  0.1170031776365657  1.0000
  C   C2        1.0  0.7870919612804286  0.0007329401680633318  0.38299682244859984  1.0000
  C   C3        1.0  0.287091960969564  0.49926705943410227  0.8829968223636908  1.0000
  C   C4        1.0  0.21290803895721577  0.9992670608987296  0.6170031775513176  1.0000
  C   C5        1.0  0.7837792971166527  0.6634610764012894  0.15583414613475235  1.0000
  C   C6        1.0  0.7162207034318564  0.16346107493666198  0.3441658539500742  1.0000
  C   C7        1.0  0.2162207031209916  0.3365389246655036  0.8441658538651651  1.0000
  C   C8        1.0  0.2837792968057881  0.8365389242676692  0.6558341460498432  1.0000
  C   C9        1.0  0.7290947540477845  0.8565944210681201  0.18501315792205342  1.0000
  C   C10       1.0  0.7709052455965867  0.35659442146595444  0.31498684216311207  1.0000
  C   C11       1.0  0.27090524618986  0.1434055781362111  0.814986842077864  1.0000
  C   C12       1.0  0.22909475373691973  0.6434055796008384  0.6850131578371443  1.0000
  C   C13       1.0  0.615328504236725  0.8562823004122541  0.1983695608422482  1.0000
  C   C14       1.0  0.884671496311784  0.35628230081008855  0.3016304392425784  1.0000
  C   C15       1.0  0.3846714960009194  0.14371769879207705  0.8016304391576692  1.0000
  C   C16       1.0  0.11532850392586025  0.6437176983942426  0.698369560757339  1.0000
  C   C17       1.0  0.5206201668505845  0.6652159903171706  0.18629895093095236  1.0000
  C   C18       1.0  0.9793798327937865  0.1652159888525433  0.3137010491542132  1.0000
  C   C19       1.0  0.4793798324829219  0.3347840107496223  0.8137010490693042  1.0000
  C   C20       1.0  0.020620167443857973  0.8347840103517878  0.6862989508457042  1.0000
  C   C21       1.0  0.5074761293470147  0.5078314204032813  0.13924718641882172  1.0000
  C   C22       1.0  0.9925238702973564  0.007831420801115714  0.3607528136663439  1.0000
  C   C23       1.0  0.49252387089062977  0.49216857880104986  0.8607528135810958  1.0000
  C   C24       1.0  0.0074761290361499535  0.9921685784032154  0.6392471863339126  1.0000
  C   C25       1.0  0.9125079512794695  0.629607600482668  0.16696923515152484  1.0000
  C   C26       1.0  0.5874920483649015  0.1296076008805024  0.3330307649336407  1.0000
  C   C27       1.0  0.08749204895817486  0.3703924005841249  0.8330307648483926  1.0000
  C   C28       1.0  0.4125079509686048  0.8703924001862905  0.6669692350666158  1.0000
  C   C29       1.0  0.9667054583505071  0.4337286928966617  0.14317043177507371  1.0000
  C   C30       1.0  0.5332945412938639  0.9337286924988274  0.35682956831009177  1.0000
  C   C31       1.0  0.03329454188713733  0.5662713081701312  0.8568295682248438  1.0000
  C   C32       1.0  0.4667054580396425  0.06627130856796558  0.6431704316901646  1.0000
  C   C33       1.0  0.8938008262532672  0.26557852775894836  0.1076321435443435  1.0000
  C   C34       1.0  0.6061991741183685  0.7655785292235756  0.3923678561241185  1.0000
  C   C35       1.0  0.10619917398437732  0.7344214714453827  0.8923678564555739  1.0000
  C   C36       1.0  0.39380082611927586  0.2344214718432172  0.6076321438757989  1.0000
  C   C37       1.0  0.7666366414240474  0.3011498937159085  0.09417294791867313  1.0000
  C   C38       1.0  0.7333633582203238  0.8011498933180742  0.40582705216649245  1.0000
  C   C39       1.0  0.23336335881359713  0.6988501073508845  0.9058270520812444  1.0000
  C   C40       1.0  0.2666366411131826  0.19885010774871884  0.5941729478337641  1.0000
  C   C41       1.0  0.43814466383726774  0.6297657365242446  0.2230304507370444  1.0000
  C   C42       1.0  0.0618553362815545  0.129765736922079  0.2769695492629143  1.0000
  C   C43       1.0  0.5618553364003768  0.3702342626800866  0.7769695492628731  1.0000
  C   C44       1.0  0.9381446639560899  0.8702342641447139  0.723030450737003  1.0000
  C   C45       1.0  0.34995628090866737  0.4415927868646233  0.21432210164898644  1.0000
  C   C46       1.0  0.15004371830601682  0.9415927864667889  0.2856778983513113  1.0000
  C   C47       1.0  0.6500437184248391  0.5584072142021697  0.7856778983512701  1.0000
  C   C48       1.0  0.8499562810274895  0.058407212737542284  0.7143221016489452  1.0000
  C   C49       1.0  0.34006179490387395  0.28530063272764855  0.16793528941934338  1.0000
  C   C50       1.0  0.15993820521494823  0.7853006341922759  0.3320647105806154  1.0000
  C   C51       1.0  0.6599382053337705  0.7146993664766826  0.8320647105805741  1.0000
  C   C52       1.0  0.8400617950226962  0.21469936687451702  0.667935289419302  1.0000
  C   C53       1.0  0.4186775341623252  0.3203426460751775  0.13032445140892157  1.0000
  C   C54       1.0  0.08132246595649693  0.820342645677343  0.36967554859103713  1.0000
  C   C55       1.0  0.581322466075319  0.6796573549916155  0.8696755485909957  1.0000
  C   C56       1.0  0.9186775342811476  0.17965735538944988  0.6303244514088804  1.0000
  C   C57       1.0  0.5497834300572741  0.717380432344734  0.056143771916579016  1.0000
  C   C58       1.0  0.950216570491235  0.21738043274256844  0.44385622816824755  1.0000
  C   C59       1.0  0.45021657018037026  0.28261956685959716  0.9438562280833386  1.0000
  C   C60       1.0  0.04978342974640947  0.7826195664617627  0.5561437718316699  1.0000
  N   N1        1.0  0.5840028015709768  0.550584854277569  0.09912307247080612  1.0000
  N   N2        1.0  0.9159971989775321  0.05058485467540347  0.4008769276140204  1.0000
  N   N3        1.0  0.41599719866666757  0.44941514492676216  0.9008769275291113  1.0000
  N   N4        1.0  0.08400280126011223  0.9494151445289277  0.5991230723858971  1.0000
  N   N5        1.0  0.4322010570031506  0.7931639887629144  0.0444205702398215  1.0000
  N   N6        1.0  0.06779894311567167  0.2931639872982871  0.45557942976013727  1.0000
  N   N7        1.0  0.5677989432344939  0.2068360123038785  0.955579429760096  1.0000
  N   N8        1.0  0.9322010571219729  0.7068360119060441  0.5444205702397802  1.0000
  N   N9        1.0  0.8537502442976497  0.6975972274551797  0.005056633123398536  1.0000
  N   N10       1.0  0.6462497562508596  0.19759722785301412  0.49494336696142804  1.0000
  N   N11       1.0  0.14624975593999487  0.3024027717491515  0.994943366876519  1.0000
  N   N12       1.0  0.3537502439867849  0.8024027713513171  0.5050566330384895  1.0000
  O   O1        1.0  0.6279334441182799  0.7946940215947376  0.028343868960591077  1.0000
  O   O2        1.0  0.8720665555260911  0.294694021992572  0.4716561311245745  1.0000
  O   O3        1.0  0.37206655611936446  0.20530597760959357  0.9716561310393264  1.0000
  O   O4        1.0  0.12793344380741528  0.7053059772117591  0.5283438688756821  1.0000
  Br  Br1       1.0  0.14461135173180054  0.8074374078096357  0.07403435046154379  1.0000
  Br  Br2       1.0  0.35538864838702167  0.30743740820747006  0.4259656495384149  1.0000
  Br  Br3       1.0  0.855388648505844  0.1925625913946955  0.9259656495383737  1.0000
  Br  Br4       1.0  0.6446113518506227  0.6925625909968611  0.5740343504615025  1.0000
