data_image0
_chemical_formula_structural       H22C20N2I6
_chemical_formula_sum              "H22 C20 N2 I6"
_cell_length_a       6.144781728081917
_cell_length_b       9.539240864827107
_cell_length_c       12.927665053845427
_cell_angle_alpha    74.01675876836532
_cell_angle_beta     76.4893742633733
_cell_angle_gamma    71.8091741631628

_space_group_name_H-M_alt    "P 1"
_space_group_IT_number       1

loop_
  _space_group_symop_operation_xyz
  'x, y, z'

loop_
  _atom_site_type_symbol
  _atom_site_label
  _atom_site_symmetry_multiplicity
  _atom_site_fract_x
  _atom_site_fract_y
  _atom_site_fract_z
  _atom_site_occupancy
  H   H1        1.0  0.8377613931592199  0.2790478070511176  0.8262658464249248  1.0000
  H   H2        1.0  0.16223860655129735  0.7209521924618878  0.1737341532382047  1.0000
  H   H3        1.0  0.7501643380862509  0.5076899165553015  0.9030642739952377  1.0000
  H   H4        1.0  0.24983566272164026  0.4923100840606911  0.0969357256637769  1.0000
  H   H5        1.0  0.39815963515594854  0.722049198281946  0.8587012366917468  1.0000
  H   H6        1.0  0.6018403637445541  0.2779508020904939  0.14129876378444012  1.0000
  H   H7        1.0  0.15561795338402432  0.6990249073944759  0.7340011712479338  1.0000
  H   H8        1.0  0.8443820460479463  0.30097509187381927  0.26599882923055873  1.0000
  H   H9        1.0  0.2709736386047875  0.46457059215148205  0.6610169629502053  1.0000
  H   H10       1.0  0.7290263622031037  0.5354294084645106  0.3389830367088092  1.0000
  H   H11       1.0  0.9014234361301147  0.041889078025127174  0.7751674967772825  1.0000
  H   H12       1.0  0.0985765652092443  0.9581109214867207  0.2248325028840378  1.0000
  H   H13       1.0  0.9869097758808458  0.14583011130085888  0.636122445441776  1.0000
  H   H14       1.0  0.013090223551124791  0.8541698879674364  0.36387755503671665  1.0000
  H   H15       1.0  0.3085248791895438  0.12422930518526619  0.7419676787417939  1.0000
  H   H16       1.0  0.6914751205209739  0.8757706943277391  0.25803232092133555  1.0000
  H   H17       1.0  0.5217974484926737  0.031738365294607974  0.8345826022959666  1.0000
  H   H18       1.0  0.478202550939297  0.9682616339736871  0.1654173981825259  1.0000
  H   H19       1.0  0.7193979712892734  0.26101504248477747  0.5218440792808424  1.0000
  H   H20       1.0  0.2806020292400705  0.7389849578865051  0.4781559211935352  1.0000
  H   H21       1.0  0.41768814441104934  0.25136827850416027  0.5676770153831339  1.0000
  H   H22       1.0  0.5823118566497625  0.7486317207629775  0.43232298509354944  1.0000
  C   C1        1.0  0.6906646292862386  0.37592709336349606  0.8086472428939667  1.0000
  C   C2        1.0  0.30933537042427917  0.6240729061495093  0.1913527567691627  1.0000
  C   C3        1.0  0.6374502428371472  0.5030340816173102  0.8510530812304861  1.0000
  C   C4        1.0  0.3625497568733705  0.496965917895695  0.14894691843264327  1.0000
  C   C5        1.0  0.4435246389828199  0.6214542973361403  0.8253124640600221  1.0000
  C   C6        1.0  0.5564753601962298  0.3785457032810097  0.1746875356008016  1.0000
  C   C7        1.0  0.3080287259661516  0.6093280263497662  0.7567910202347594  1.0000
  C   C8        1.0  0.691971273744366  0.39067197316323926  0.24320897942836997  1.0000
  C   C9        1.0  0.36790633574534237  0.48031986822747913  0.716036952674097  1.0000
  C   C10       1.0  0.6320936647840015  0.5196801321438033  0.28396304780028075  1.0000
  C   C11       1.0  0.6101636302464409  0.22770505694333698  0.7033448637082714  1.0000
  C   C12       1.0  0.3898363689326088  0.7722949436738131  0.2966551359525522  1.0000
  C   C13       1.0  0.8473901243938939  0.10962423485635625  0.6974649002914767  1.0000
  C   C14       1.0  0.15260987531662373  0.8903757646566492  0.3025350993716528  1.0000
  C   C15       1.0  0.48926302245652387  0.09816037058684134  0.7532327171443471  1.0000
  C   C16       1.0  0.5107369767225259  0.9018396300303086  0.24676728251647656  1.0000
  C   C17       1.0  0.5925015859164636  0.21875992497396926  0.5881049849948357  1.0000
  C   C18       1.0  0.40749841351550703  0.7812400742943258  0.41189501548365687  1.0000
  C   C19       1.0  0.6777160398151109  0.05495664665234313  0.6551445063828816  1.0000
  C   C20       1.0  0.3222839615242482  0.9450433528595048  0.3448554932784387  1.0000
  N   N1        1.0  0.5561613296568987  0.3662663533049386  0.7430617911478499  1.0000
  N   N2        1.0  0.44383866977507186  0.6337336459633565  0.25693820933064276  1.0000
  I   I1        1.0  0.7671895545470828  0.8489672804666893  0.6012533499217138  1.0000
  I   I2        1.0  0.23281044463196687  0.15103272015046063  0.39874664973911006  1.0000
  I   I3        1.0  0.0  0.0  0.0  1.0000
  I   I4        1.0  0.8322354439364147  0.7472345346381983  0.9915183044796405  1.0000
  I   I5        1.0  0.1677645552426348  0.2527654659789519  0.00848169518118321  1.0000
  I   I6        1.0  1.9862420450070572e-10  0.49999999988684074  0.49999999985614574  1.0000
