data_image0
_chemical_formula_structural       H88C84N16O24S4
_chemical_formula_sum              "H88 C84 N16 O24 S4"
_cell_length_a       7.550582292973864
_cell_length_b       21.416149629548933
_cell_length_c       13.315767241625917
_cell_angle_alpha    90.0
_cell_angle_beta     102.3645976989783
_cell_angle_gamma    90.0

_space_group_name_H-M_alt    "P 1"
_space_group_IT_number       1

loop_
  _space_group_symop_operation_xyz
  'x, y, z'

loop_
  _atom_site_type_symbol
  _atom_site_label
  _atom_site_symmetry_multiplicity
  _atom_site_fract_x
  _atom_site_fract_y
  _atom_site_fract_z
  _atom_site_occupancy
  H   H1        1.0  0.8763134655265298  0.31228459903792993  0.5670510204782024  1.0000
  H   H2        1.0  0.12368653394452038  0.8122845992819295  0.9329489799694849  1.0000
  H   H3        1.0  0.12368653423744665  0.687715400983132  0.4329489800749967  1.0000
  H   H4        1.0  0.8763134658245463  0.1877154007391324  0.06705101983334814  1.0000
  H   H5        1.0  0.6089947972347253  0.27611367740170883  0.43982783533640324  1.0000
  H   H6        1.0  0.3910052028272676  0.7761136771787712  0.060172164571941564  1.0000
  H   H7        1.0  0.39100520253434135  0.7238863226193532  0.5601721644664298  1.0000
  H   H8        1.0  0.6089947982976399  0.22388632284229085  0.9398278353983391  1.0000
  H   H9        1.0  0.9664027787564945  0.2044524205209441  0.251329102243168  1.0000
  H   H10       1.0  0.03359722130549852  0.7044524207649437  0.24867089766517678  1.0000
  H   H11       1.0  0.03359722101257225  0.795547579500118  0.7486708975596651  1.0000
  H   H12       1.0  0.9664027798194089  0.2955475792561182  0.7513291023051039  1.0000
  H   H13       1.0  0.22996651701225232  0.24535861165024334  0.37655310768675654  1.0000
  H   H14       1.0  0.7700334830497406  0.7453586114273056  0.12344689222158821  1.0000
  H   H15       1.0  0.7700334827568143  0.7546413883708187  0.6234468921160766  1.0000
  H   H16       1.0  0.22996651807516694  0.2546413885937563  0.8765531077486924  1.0000
  H   H17       1.0  0.6302609947285912  0.21024250614067239  0.19135301665348126  1.0000
  H   H18       1.0  0.3697390053283115  0.7102425059177347  0.3086469840052296  1.0000
  H   H19       1.0  0.36973900503538515  0.7897574938803895  0.8086469838997179  1.0000
  H   H20       1.0  0.630260994435665  0.2897574941033273  0.6913530165479695  1.0000
  H   H21       1.0  0.495050144639265  0.22886531214916775  0.27271249329754493  1.0000
  H   H22       1.0  0.5049498554227279  0.7288653119262302  0.22728750661079988  1.0000
  H   H23       1.0  0.5049498551298016  0.7711346878718942  0.7272875065052882  1.0000
  H   H24       1.0  0.49505014570217964  0.2711346880948319  0.7727124933594809  1.0000
  H   H25       1.0  0.22657636743027737  0.41104141884842665  0.6129167380758945  1.0000
  H   H26       1.0  0.7734236333966136  0.911041418625489  0.8870832625392404  1.0000
  H   H27       1.0  0.7734236336895399  0.5889585811726353  0.3870832626447521  1.0000
  H   H28       1.0  0.226576366372453  0.08895858139557303  0.11291673726359265  1.0000
  H   H29       1.0  0.3661311968377296  0.5007325679684217  0.23500667204530426  1.0000
  H   H30       1.0  0.6338688032242633  0.0007325681913593558  0.26499332786304053  1.0000
  H   H31       1.0  0.633868802931337  0.4992674320526403  0.7649933277575288  1.0000
  H   H32       1.0  0.36613119654480336  0.9992674318297027  0.7350066719397926  1.0000
  H   H33       1.0  0.426987605303116  0.4028303228745093  0.1605140160737891  1.0000
  H   H34       1.0  0.5730123947588768  0.9028303226515716  0.3394859838345557  1.0000
  H   H35       1.0  0.5730123944659506  0.5971696771465527  0.839485983729044  1.0000
  H   H36       1.0  0.4269876050101898  0.09716967736949035  0.6605140159682774  1.0000
  H   H37       1.0  0.31703894430402685  0.33582797815703724  0.2006516124529462  1.0000
  H   H38       1.0  0.6829610557579661  0.8358279784010368  0.2993483874553986  1.0000
  H   H39       1.0  0.6829610554650398  0.6641720218640248  0.7993483873498869  1.0000
  H   H40       1.0  0.3170389440111006  0.1641720216200251  0.7006516123474344  1.0000
  H   H41       1.0  0.5477658461833425  0.3512995328357005  0.25599092646587085  1.0000
  H   H42       1.0  0.4522341538786504  0.8512995326127628  0.24400907344247397  1.0000
  H   H43       1.0  0.4522341535857241  0.6487004671853615  0.7440090733369623  1.0000
  H   H44       1.0  0.5477658458853261  0.1487004674082992  0.7559909271107252  1.0000
  H   H45       1.0  0.32144989675541114  0.598019852846431  0.3191415576597799  1.0000
  H   H46       1.0  0.6785501033065817  0.0980198526024313  0.18085844224856484  1.0000
  H   H47       1.0  0.6785501030136555  0.40198014717463104  0.6808584421430531  1.0000
  H   H48       1.0  0.3214498964624849  0.9019801474186306  0.8191415575542683  1.0000
  H   H49       1.0  0.33639629987132685  0.5979943057705343  0.45535578001990545  1.0000
  H   H50       1.0  0.6636037001906661  0.09799430552653464  0.04464421988843929  1.0000
  H   H51       1.0  0.6636036998977398  0.4020056942505277  0.5446442197829275  1.0000
  H   H52       1.0  0.33639629957331035  0.9020056944945273  0.9553557806647599  1.0000
  H   H53       1.0  0.12335100556669518  0.587166810445228  0.36947238969414764  1.0000
  H   H54       1.0  0.8766489944952977  0.08716681066816576  0.1305276102141971  1.0000
  H   H55       1.0  0.8766489942023715  0.41283318910889655  0.6305276101086854  1.0000
  H   H56       1.0  0.12335100527376891  0.9128331893528964  0.8694723895886359  1.0000
  H   H57       1.0  0.14251674256935581  0.5439274249339164  0.042976378136677644  1.0000
  H   H58       1.0  0.8574832574926371  0.04392742468991678  0.4570236217716671  1.0000
  H   H59       1.0  0.8574832571997109  0.4560725750871456  0.9570236216661555  1.0000
  H   H60       1.0  0.14251674227642952  0.9560725753311452  0.5429763780311659  1.0000
  H   H61       1.0  0.04112018779249352  0.6545631433513314  0.009555921518103002  1.0000
  H   H62       1.0  0.9588798122694994  0.15456314310733169  0.4904440783902418  1.0000
  H   H63       1.0  0.9588798133324139  0.3454368566697307  0.9904440784521777  1.0000
  H   H64       1.0  0.04112018749956725  0.8454368569137304  0.5095559214125912  1.0000
  H   H65       1.0  0.018307898881114042  0.6998773201191764  0.8344629689262879  1.0000
  H   H66       1.0  0.9816921005950263  0.19987732034211408  0.6655370307710334  1.0000
  H   H67       1.0  0.9816921008879527  0.3001226799018856  0.16553703087654514  1.0000
  H   H68       1.0  0.01830789917404031  0.800122679678948  0.3344629690317996  1.0000
  H   H69       1.0  0.08582954362690735  0.6337817224284065  0.6942579672903691  1.0000
  H   H70       1.0  0.914170457205074  0.13378172265134405  0.8057420325743998  1.0000
  H   H71       1.0  0.9141704561421592  0.36621827712571825  0.30574203251246396  1.0000
  H   H72       1.0  0.08582954391983362  0.866218277369718  0.19425796739588083  1.0000
  H   H73       1.0  0.22064514024863735  0.5149698582971791  0.5599524463722102  1.0000
  H   H74       1.0  0.7793548592224129  0.014969858053179488  0.9400475540754772  1.0000
  H   H75       1.0  0.7793548595153391  0.48503014172388287  0.4400475541809889  1.0000
  H   H76       1.0  0.22064514054156364  0.9850301419678824  0.05995244647772187  1.0000
  H   H77       1.0  0.5406673415745263  0.36337534872574134  0.938194951028889  1.0000
  H   H78       1.0  0.459332657901614  0.8633753485028037  0.5618050486684326  1.0000
  H   H79       1.0  0.4593326581945403  0.6366246512953206  0.061805048773944285  1.0000
  H   H80       1.0  0.5406673418674527  0.13662465151825834  0.4381949511344005  1.0000
  H   H81       1.0  0.3249299850733576  0.3544521462217614  0.8518855942277525  1.0000
  H   H82       1.0  0.6750700157586237  0.8544521464657611  0.6481144056370166  1.0000
  H   H83       1.0  0.675070014695709  0.6455478537993006  0.14811440557508063  1.0000
  H   H84       1.0  0.3249299853662838  0.14554785355530092  0.3518855943332641  1.0000
  H   H85       1.0  0.33445040186220637  0.36220454349540226  0.9856496744277344  1.0000
  H   H86       1.0  0.665549597613934  0.862204543739402  0.5143503252695868  1.0000
  H   H87       1.0  0.6655495979068603  0.6377954565256597  0.014350325375098559  1.0000
  H   H88       1.0  0.33445040215513266  0.13779545628166004  0.4856496745332462  1.0000
  C   C1        1.0  0.0694467690728  0.2804370320476929  0.47977357351086597  1.0000
  C   C2        1.0  0.9305532309891928  0.7804370322916926  0.02022642639747876  1.0000
  C   C3        1.0  0.9305532306962666  0.7195629679733692  0.520226426291967  1.0000
  C   C4        1.0  0.06944676877987371  0.21956296772936945  0.9797735734053543  1.0000
  C   C5        1.0  0.8942672659850329  0.2891883002841367  0.4971990328344994  1.0000
  C   C6        1.0  0.10573273407695995  0.789188300061199  0.00280096707384542  1.0000
  C   C7        1.0  0.10573273513987454  0.7108116997369253  0.5028009671357813  1.0000
  C   C8        1.0  0.8942672656921068  0.2108116994929256  0.9971990327289877  1.0000
  C   C9        1.0  0.7446287369327349  0.26862102289678325  0.42592197766011064  1.0000
  C   C10       1.0  0.255371263129258  0.7686210231407828  0.07407802224823413  1.0000
  C   C11       1.0  0.2553712628363317  0.7313789771242788  0.5740780221427224  1.0000
  C   C12       1.0  0.7446287366398087  0.23137897688027909  0.925921977554599  1.0000
  C   C13       1.0  0.7676149038656814  0.23800498260281142  0.3353419422583103  1.0000
  C   C14       1.0  0.23238509619631148  0.7380049823798738  0.16465805765003444  1.0000
  C   C15       1.0  0.23238509590338524  0.7619950174182505  0.6646580575445228  1.0000
  C   C16       1.0  0.7676149035727551  0.26199501717425094  0.8353419421527988  1.0000
  C   C17       1.0  0.9451201194912572  0.22880140803831342  0.3195795057632283  1.0000
  C   C18       1.0  0.054879880570735666  0.7288014078153757  0.18042049414511646  1.0000
  C   C19       1.0  0.054879880277809406  0.7711985919827485  0.6804204940396048  1.0000
  C   C20       1.0  0.945120119198331  0.27119859220568626  0.8195795056577166  1.0000
  C   C21       1.0  0.09399760938353237  0.25082900955213117  0.390018421812501  1.0000
  C   C22       1.0  0.9060023906784604  0.7508290097961308  0.10998157809584376  1.0000
  C   C23       1.0  0.9060023903855343  0.7491709904689309  0.6099815779903319  1.0000
  C   C24       1.0  0.0939976090906061  0.24917099022493117  0.8900184217069893  1.0000
  C   C25       1.0  0.2901131568241266  0.41378902946087825  0.46739048126353316  1.0000
  C   C26       1.0  0.7098868432378663  0.913789029704878  0.0326095186448116  1.0000
  C   C27       1.0  0.7098868429398497  0.5862109705601838  0.5326095192896659  1.0000
  C   C28       1.0  0.2901131565312003  0.08621097031618409  0.9673904811580215  1.0000
  C   C29       1.0  0.36119604798703075  0.4109123881847547  0.30904607798629147  1.0000
  C   C30       1.0  0.638803952069872  0.910912387961817  0.19095392267241942  1.0000
  C   C31       1.0  0.6388039517769456  0.5890876118363074  0.6909539225669078  1.0000
  C   C32       1.0  0.36119604769410446  0.08908761205924505  0.8090460778807796  1.0000
  C   C33       1.0  0.34192119420774086  0.47579745361606424  0.30198681312135195  1.0000
  C   C34       1.0  0.658078805854252  0.9757974538600639  0.19801318678699287  1.0000
  C   C35       1.0  0.6580788055613257  0.5242025464049977  0.6980131866814812  1.0000
  C   C36       1.0  0.3419211939148146  0.02420254616099808  0.8019868130158402  1.0000
  C   C37       1.0  0.2950898342458643  0.507690914009971  0.3836575590834991  1.0000
  C   C38       1.0  0.7049101658161285  0.007690913765971345  0.11634244082484572  1.0000
  C   C39       1.0  0.7049101655232023  0.492309086011091  0.616342440719334  1.0000
  C   C40       1.0  0.29508983395293803  0.9923090862550906  0.8836575589779874  1.0000
  C   C41       1.0  0.4155071625992183  0.37338093253546345  0.22603534499544878  1.0000
  C   C42       1.0  0.5844928374627747  0.8733809323125258  0.273964654912896  1.0000
  C   C43       1.0  0.5844928371698483  0.6266190674855986  0.7739646548073843  1.0000
  C   C44       1.0  0.4155071636621329  0.12661906770853626  0.7260353450573847  1.0000
  C   C45       1.0  0.26919363689382053  0.5768843664107428  0.3819436434661223  1.0000
  C   C46       1.0  0.7308063631681724  0.07688436663368045  0.11805635644222248  1.0000
  C   C47       1.0  0.7308063628752461  0.42311563361031923  0.6180563563367109  1.0000
  C   C48       1.0  0.2691936379567351  0.9231156333873816  0.8819436435280581  1.0000
  C   C49       1.0  0.14727456776468323  0.5516662903633645  0.7877119513206648  1.0000
  C   C50       1.0  0.8527254317114572  0.051666290119364695  0.7122880483766566  1.0000
  C   C51       1.0  0.8527254320043834  0.44833370965769764  0.21228804848216828  1.0000
  C   C52       1.0  0.14727456805760947  0.9483337099016973  0.2877119514261765  1.0000
  C   C53       1.0  0.1633587397657314  0.5275836569805464  0.8877352498736918  1.0000
  C   C54       1.0  0.8366412597104089  0.02758365673654672  0.6122647498236296  1.0000
  C   C55       1.0  0.8366412600033353  0.4724163430405156  0.11226474992914127  1.0000
  C   C56       1.0  0.1633587400586577  0.9724163432845153  0.38773524997920356  1.0000
  C   C57       1.0  0.12592938012486846  0.5643377637464964  0.9667927963577456  1.0000
  C   C58       1.0  0.8740706193461818  0.06433776396943397  0.5332072040899417  1.0000
  C   C59       1.0  0.8740706196391079  0.4356622362745657  0.03320720419545346  1.0000
  C   C60       1.0  0.12592938041779472  0.935662236051628  0.46679279646325733  1.0000
  C   C61       1.0  0.07185412319352494  0.6261500083795611  0.9476258728761242  1.0000
  C   C62       1.0  0.9281458776384562  0.1261500081355615  0.5523741269886449  1.0000
  C   C63       1.0  0.9281458779313826  0.37384999164150085  0.05237412709415658  1.0000
  C   C64       1.0  0.07185412213061032  0.8738499914185631  0.44762587281418825  1.0000
  C   C65       1.0  0.059213536876674314  0.651484011427962  0.8497218647537433  1.0000
  C   C66       1.0  0.9407864625994661  0.1514840116508996  0.6502781349435781  1.0000
  C   C67       1.0  0.9407864628923923  0.34851598859310007  0.15027813504908982  1.0000
  C   C68       1.0  0.05921353716960058  0.8485159883701624  0.349721864859255  1.0000
  C   C69       1.0  0.09694039417628453  0.6145951297351494  0.7710014536230148  1.0000
  C   C70       1.0  0.9030596066506066  0.11459512995808716  0.7289985469921202  1.0000
  C   C71       1.0  0.9030596055876919  0.3854048702859125  0.22899854693018437  1.0000
  C   C72       1.0  0.0969403944692108  0.885404870062975  0.27100145372852646  1.0000
  C   C73       1.0  0.1754097371995396  0.5128942302889274  0.7001726305916107  1.0000
  C   C74       1.0  0.8245902622715107  0.012894230044927835  0.7998273698560768  1.0000
  C   C75       1.0  0.8245902625695272  0.4871057697321345  0.29982736921122244  1.0000
  C   C76       1.0  0.17540973749246583  0.9871057699761341  0.20017263069712235  1.0000
  C   C77       1.0  0.3805480134939332  0.44578039821068793  0.9056950085891123  1.0000
  C   C78       1.0  0.6194519873329578  0.9457803979877503  0.5943049920260227  1.0000
  C   C79       1.0  0.6194519876258842  0.5542196018103741  0.09430499213153448  1.0000
  C   C80       1.0  0.38054801243101855  0.054219602033311755  0.4056950085271764  1.0000
  C   C81       1.0  0.39794982273273827  0.37706564016802124  0.9229261279455351  1.0000
  C   C82       1.0  0.6020501767434022  0.8770656399450836  0.5770738717517864  1.0000
  C   C83       1.0  0.6020501770363285  0.6229343598530408  0.07707387185729804  1.0000
  C   C84       1.0  0.39794982302566456  0.1229343600759784  0.42292612805104673  1.0000
  N   N1        1.0  0.6213578848576277  0.2162617734800328  0.26568419504617297  1.0000
  N   N2        1.0  0.37864211520436525  0.7162617737240325  0.23431580486217185  1.0000
  N   N3        1.0  0.37864211491143895  0.7837382265410292  0.7343158047566601  1.0000
  N   N4        1.0  0.6213578845647013  0.2837382262970295  0.7656841949406613  1.0000
  N   N5        1.0  0.2657157986513084  0.38378244138991435  0.5552144922542704  1.0000
  N   N6        1.0  0.734284200824832  0.8837824416339141  0.9447855074430509  1.0000
  N   N7        1.0  0.734284201117758  0.6162175586311476  0.44478550754856266  1.0000
  N   N8        1.0  0.26571579894423475  0.11621755838714795  0.0552144923597821  1.0000
  N   N9        1.0  0.334253880048904  0.3797216960409928  0.39234236046178245  1.0000
  N   N10       1.0  0.6657461200079986  0.879721695818055  0.10765764019692839  1.0000
  N   N11       1.0  0.6657461197150724  0.6202783039800692  0.6076576400914167  1.0000
  N   N12       1.0  0.33425387975597776  0.12027830420300689  0.8923423603562708  1.0000
  N   N13       1.0  0.26841431472236116  0.4764644371890727  0.4673771534390337  1.0000
  N   N14       1.0  0.7315856853396316  0.976464436966135  0.03262284646931112  1.0000
  N   N15       1.0  0.7315856863974561  0.5235355628319893  0.532622847281613  1.0000
  N   N16       1.0  0.2684143144294349  0.02353556305492698  0.9673771533335219  1.0000
  O   O1        1.0  0.21764574546856674  0.30156643055430626  0.6724071203924079  1.0000
  O   O2        1.0  0.7823542540075736  0.801566430798306  0.8275928793049134  1.0000
  O   O3        1.0  0.7823542543004999  0.6984335694667557  0.3275928794104252  1.0000
  O   O4        1.0  0.217645745761493  0.19843356922275607  0.1724071204979196  1.0000
  O   O5        1.0  0.4184887768908222  0.27803435458745496  0.5513396835398588  1.0000
  O   O6        1.0  0.5815112225853183  0.7780343548314547  0.9486603161574626  1.0000
  O   O7        1.0  0.5815112228782445  0.721965645433607  0.44866031626297426  1.0000
  O   O8        1.0  0.4184887771837485  0.22196564518960737  0.051339683645370546  1.0000
  O   O9        1.0  0.19637561986064003  0.544986141855128  0.6185963791713959  1.0000
  O   O10       1.0  0.8036243809713413  0.044986141611128246  0.8814036206933732  1.0000
  O   O11       1.0  0.8036243799084266  0.4550138581659341  0.38140362063143723  1.0000
  O   O12       1.0  0.19637562015356627  0.9550138584099337  0.11859637927690757  1.0000
  O   O13       1.0  0.1755966844863507  0.45466669538790877  0.7032592949433797  1.0000
  O   O14       1.0  0.8244033149846994  0.9546666956319084  0.7967407055043076  1.0000
  O   O15       1.0  0.8244033152827159  0.5453333046331532  0.2967407048594533  1.0000
  O   O16       1.0  0.17559668477927698  0.04533330438915356  0.2032592950488915  1.0000
  O   O17       1.0  0.2105431545561632  0.46577313301158957  0.9128468712010313  1.0000
  O   O18       1.0  0.7894568449199771  0.965773132788652  0.5871531284962901  1.0000
  O   O19       1.0  0.7894568452129035  0.5342268670094724  0.08715312860180179  1.0000
  O   O20       1.0  0.21054315484908945  0.03422686723241009  0.41284687130654296  1.0000
  O   O21       1.0  0.4958797228266729  0.48086531090495105  0.8864569967038617  1.0000
  O   O22       1.0  0.5041202766494675  0.9808653106820133  0.6135430029934597  1.0000
  O   O23       1.0  0.5041202769423937  0.5191346891161109  0.11354300309897136  1.0000
  O   O24       1.0  0.4958797231195991  0.01913468933904862  0.38645699680937345  1.0000
  S   S1        1.0  0.255779509441928  0.30709545524120063  0.5703589230146073  1.0000
  S   S2        1.0  0.7442204913900532  0.807095455018263  0.9296410768501615  1.0000
  S   S3        1.0  0.7442204903271386  0.6929045447798614  0.4296410767882258  1.0000
  S   S4        1.0  0.2557795083790134  0.19290454500279902  0.07035892295267147  1.0000
