data_image0
_chemical_formula_structural       H32C32N4O10S2
_chemical_formula_sum              "H32 C32 N4 O10 S2"
_cell_length_a       7.048907999270652
_cell_length_b       7.470673185041867
_cell_length_c       15.427484806512537
_cell_angle_alpha    84.86100815015999
_cell_angle_beta     85.83215190431585
_cell_angle_gamma    70.79807486392825

_space_group_name_H-M_alt    "P 1"
_space_group_IT_number       1

loop_
  _space_group_symop_operation_xyz
  'x, y, z'

loop_
  _atom_site_type_symbol
  _atom_site_label
  _atom_site_symmetry_multiplicity
  _atom_site_fract_x
  _atom_site_fract_y
  _atom_site_fract_z
  _atom_site_occupancy
  H   H1        1.0  0.3338006015646747  0.9474238372667328  0.6407652243074157  1.0000
  H   H2        1.0  0.6661993989402192  0.05257616240469237  0.3592347757298711  1.0000
  H   H3        1.0  0.3942389024016113  0.24030525297036592  0.6738155164242288  1.0000
  H   H4        1.0  0.605761096679978  0.7596947467036798  0.32618448365729696  1.0000
  H   H5        1.0  0.2192809212730548  0.9158246122753303  0.49488408206976126  1.0000
  H   H6        1.0  0.780719079231839  0.08417538739609494  0.5051159179675254  1.0000
  H   H7        1.0  0.32778856315005084  0.5191186035836151  0.5640328549677412  1.0000
  H   H8        1.0  0.6722114373548429  0.48088139608781016  0.4359671450695454  1.0000
  H   H9        1.0  0.11010630799821594  0.5163046908796092  0.2589269185197761  1.0000
  H   H10       1.0  0.8898936925066778  0.483695308791816  0.7410730815175106  1.0000
  H   H11       1.0  0.9888352922753844  0.6061797534586577  0.03081082361676768  1.0000
  H   H12       1.0  0.011164708229509405  0.3938202462127676  0.9691891764205192  1.0000
  H   H13       1.0  0.8453664155742479  0.7155431609607741  0.8843726985270649  1.0000
  H   H14       1.0  0.15463358350734127  0.28445683871327176  0.11562730155446095  1.0000
  H   H15       1.0  0.6360741554821527  0.055337625410953856  0.8572813516894584  1.0000
  H   H16       1.0  0.363925845022741  0.9446623742604714  0.14271864834782838  1.0000
  H   H17       1.0  0.5754254871679674  0.2770468226005754  0.973466293078911  1.0000
  H   H18       1.0  0.42457451333692636  0.7229531770708498  0.026533706958375754  1.0000
  H   H19       1.0  0.4474718408242693  0.39190658755685176  0.10139114195989467  1.0000
  H   H20       1.0  0.55252815826323  0.608093412118595  0.8986088574731871  1.0000
  H   H21       1.0  0.6708444177293934  0.4453329404638338  0.06368042834911093  1.0000
  H   H22       1.0  0.3291555827755005  0.5546670592075914  0.9363195716881758  1.0000
  H   H23       1.0  0.5335786275608431  0.4063002881518273  0.2563776036350219  1.0000
  H   H24       1.0  0.46642137152074625  0.5936997115222185  0.7436223964465039  1.0000
  H   H25       1.0  0.49261305421871526  0.6260815766787423  0.1939552595525711  1.0000
  H   H26       1.0  0.5073869462861785  0.37391842299268285  0.8060447404847156  1.0000
  H   H27       1.0  0.7433081190934356  0.47789541461312823  0.21555852155920993  1.0000
  H   H28       1.0  0.2566918814114582  0.522104585058297  0.7844414784780769  1.0000
  H   H29       1.0  0.9025913508313281  0.03923742182348348  0.22184184190225695  1.0000
  H   H30       1.0  0.09740864918812081  0.9607625792688219  0.7781581580901641  1.0000
  H   H31       1.0  0.052924021667590575  0.8384441366443885  0.2826719777509678  1.0000
  H   H32       1.0  0.9470759788373032  0.1615558630270366  0.7173280222863189  1.0000
  C   C1        1.0  0.21393156854253273  0.2008453899527289  0.4498636734973104  1.0000
  C   C2        1.0  0.7860684319682711  0.7991546097200973  0.5501363258915324  1.0000
  C   C3        1.0  0.24251657080075448  0.3705856430327542  0.46769384114567936  1.0000
  C   C4        1.0  0.7574834297041394  0.629414356638671  0.5323061588916074  1.0000
  C   C5        1.0  0.3076863614087868  0.06535076787859678  0.591486991567047  1.0000
  C   C6        1.0  0.6923136386106621  0.9346492332137085  0.4085130084253742  1.0000
  C   C7        1.0  0.3406424014341039  0.2321946853409306  0.6103609234553546  1.0000
  C   C8        1.0  0.6593575990707898  0.7678053143304947  0.3896390765819321  1.0000
  C   C9        1.0  0.19614920837519087  0.5155148834734803  0.39240254553812814  1.0000
  C   C10       1.0  0.803850792129703  0.484485116197945  0.6075974544991586  1.0000
  C   C11       1.0  0.2426395441698149  0.04642042835366556  0.510325623312762  1.0000
  C   C12       1.0  0.7573604563350786  0.9535795713177598  0.48967437672452474  1.0000
  C   C13       1.0  0.3068905566782847  0.38735181078532194  0.5489569197561854  1.0000
  C   C14       1.0  0.6931094438266091  0.6126481888861033  0.4510430802811013  1.0000
  C   C15       1.0  0.9694212331317723  0.78765801877247  0.16514166841599767  1.0000
  C   C16       1.0  0.030578766887676676  0.21234198231983537  0.8348583315764235  1.0000
  C   C17       1.0  0.8949776722875143  0.7522104845360795  0.01658572177966798  1.0000
  C   C18       1.0  0.10502232773193457  0.24778951655622578  0.9834142782127531  1.0000
  C   C19       1.0  0.8651045170011396  0.8740011118217044  0.08403355937474004  1.0000
  C   C20       1.0  0.13489548350375416  0.125998887849721  0.9159664406625467  1.0000
  C   C21       1.0  0.8155033172903405  0.8139723013293491  0.9354653712311927  1.0000
  C   C22       1.0  0.18449668321455331  0.18602769834207608  0.06453462880609415  1.0000
  C   C23       1.0  0.6998438300188023  0.004683964833951369  0.9206058039290631  1.0000
  C   C24       1.0  0.3001561704860914  0.9953160348374739  0.07939419610822354  1.0000
  C   C25       1.0  0.6667624526631516  0.1297112239383935  0.9859505472323393  1.0000
  C   C26       1.0  0.3332375478417423  0.8702887757330316  0.014049452804947373  1.0000
  C   C27       1.0  0.7478027761188388  0.06705293649177942  0.06795645298227762  1.0000
  C   C28       1.0  0.25219722247730547  0.9329470646031465  0.9320435470543825  1.0000
  C   C29       1.0  0.5993258741639226  0.3825875079263845  0.11870605460755558  1.0000
  C   C30       1.0  0.4006741249176667  0.6174124917476612  0.8812939454739703  1.0000
  C   C31       1.0  0.5930088717602937  0.4786439691573698  0.2013672497065445  1.0000
  C   C32       1.0  0.40699112732129555  0.5213560305166759  0.7986327503749814  1.0000
  N   N1        1.0  0.1449581360506061  0.4396207584853485  0.3231040924573992  1.0000
  N   N2        1.0  0.8550418630309831  0.5603792411886973  0.6768959076241267  1.0000
  N   N3        1.0  0.9718944993005006  0.8965075407959331  0.22867242816794933  1.0000
  N   N4        1.0  0.028105500718948108  0.10349246029637228  0.7713275718244718  1.0000
  O   O1        1.0  0.20096823489502605  0.680035338629652  0.3899861264531799  1.0000
  O   O2        1.0  0.7990317656098678  0.31996466104177324  0.6100138735841067  1.0000
  O   O3        1.0  0.9361305676004361  0.2159667635620187  0.33845772066065205  1.0000
  O   O4        1.0  0.06386943148115314  0.7840332361120271  0.6615422794208738  1.0000
  O   O5        1.0  0.29226913678755817  0.09380387363858379  0.2863587934152859  1.0000
  O   O6        1.0  0.7077308637173355  0.9061961260328415  0.7136412066220008  1.0000
  O   O7        1.0  0.058896713371568786  0.6091191761294922  0.17187425371254086  1.0000
  O   O8        1.0  0.9411032871392352  0.390880823543334  0.8281257456763019  1.0000
  O   O9        1.0  0.7176346367934846  0.18469131463658162  0.13390199626408264  1.0000
  O   O10       1.0  0.2823653637114093  0.8153086850348437  0.8660980037732041  1.0000
  S   S1        1.0  0.1404735743938717  0.21823177673692773  0.3416538465128635  1.0000
  S   S2        1.0  0.8595264246877176  0.781768222937118  0.6583461535686623  1.0000
