data_image0
_chemical_formula_structural       H108C84N20O20S4
_chemical_formula_sum              "H108 C84 N20 O20 S4"
_cell_length_a       7.508960437713976
_cell_length_b       26.62114894930754
_cell_length_c       11.958566131523368
_cell_angle_alpha    90.0
_cell_angle_beta     105.738789853555
_cell_angle_gamma    90.0

_space_group_name_H-M_alt    "P 1"
_space_group_IT_number       1

loop_
  _space_group_symop_operation_xyz
  'x, y, z'

loop_
  _atom_site_type_symbol
  _atom_site_label
  _atom_site_symmetry_multiplicity
  _atom_site_fract_x
  _atom_site_fract_y
  _atom_site_fract_z
  _atom_site_occupancy
  H   H1        1.0  0.4628438107877579  0.7845786892884385  0.2122483159265317  1.0000
  H   H2        1.0  0.5371561886665815  0.28457868946325326  0.7877516840473593  1.0000
  H   H3        1.0  0.37688951380033403  0.744801529331278  0.304269395296683  1.0000
  H   H4        1.0  0.6231104870376136  0.2448015295060928  0.6957306049157469  1.0000
  H   H5        1.0  0.5947706252823673  0.7146050400087949  0.4742678090982816  1.0000
  H   H6        1.0  0.40522937555558036  0.21460503980796838  0.5257321911141484  1.0000
  H   H7        1.0  0.8305940845026555  0.7136996981677687  0.476689586823069  1.0000
  H   H8        1.0  0.16940591633529214  0.21369969796694213  0.5233104133893609  1.0000
  H   H9        1.0  0.7739552585222164  0.7732653000514261  0.20901148885706533  1.0000
  H   H10       1.0  0.22604474093212304  0.27326529985059966  0.7909885111168258  1.0000
  H   H11       1.0  0.9307930319253068  0.7508887474415323  0.33182990186079386  1.0000
  H   H12       1.0  0.06920696891264093  0.250888747616347  0.668170098351636  1.0000
  H   H13       1.0  0.9409015549018293  0.23001565904086482  0.17717784912855267  1.0000
  H   H14       1.0  0.059098445936118446  0.7300156588660501  0.8228221510838774  1.0000
  H   H15       1.0  0.8683670921856852  0.21510312687495597  0.3020824670930903  1.0000
  H   H16       1.0  0.13163290726865423  0.7151031267001412  0.6979175328808006  1.0000
  H   H17       1.0  0.48197479611833705  0.2575548261668228  0.006299620429981188  1.0000
  H   H18       1.0  0.5180252047196106  0.7575548263676491  0.9937003797824489  1.0000
  H   H19       1.0  0.7168960012678979  0.2536772640001198  0.005405700477861804  1.0000
  H   H20       1.0  0.28310399818644155  0.7536772638253051  0.9945942994960293  1.0000
  H   H21       1.0  0.3903884527865278  0.23570672820878447  0.1713279816259271  1.0000
  H   H22       1.0  0.6096115480514198  0.7357067280339697  0.8286720185865027  1.0000
  H   H23       1.0  0.5590874502073532  0.22085280020015563  0.30010061328006477  1.0000
  H   H24       1.0  0.44091254925174866  0.720852800400982  0.6998993858584218  1.0000
  H   H25       1.0  0.8529642521366289  0.3364188513070529  0.10135968222556717  1.0000
  H   H26       1.0  0.14703574731771066  0.8364188515078794  0.8986403177483239  1.0000
  H   H27       1.0  0.8986665846136811  0.4224740217417456  0.18985652293248692  1.0000
  H   H28       1.0  0.10133341484065837  0.922474021942572  0.8101434770414041  1.0000
  H   H29       1.0  0.41966098247818967  0.43485842185264223  0.10763270546502138  1.0000
  H   H30       1.0  0.5803390169761498  0.9348584220534686  0.8923672945088696  1.0000
  H   H31       1.0  0.3742143263796332  0.3492053775628573  0.016127935701846632  1.0000
  H   H32       1.0  0.6257856730747062  0.8492053773880426  0.9838720642720444  1.0000
  H   H33       1.0  0.9290564594381591  0.6252760694775715  0.4555998014869328  1.0000
  H   H34       1.0  0.07094354001618039  0.12527606965238625  0.5444001984869582  1.0000
  H   H35       1.0  0.8850145718739711  0.5390107698703682  0.36647497933928364  1.0000
  H   H36       1.0  0.11498542758036832  0.03901077004518295  0.6335250206346074  1.0000
  H   H37       1.0  0.4255058626456272  0.5465282241463305  0.30998186325465604  1.0000
  H   H38       1.0  0.5744941368087122  0.04652822432114521  0.6900181367192351  1.0000
  H   H39       1.0  0.47077469881783274  0.6326321389084175  0.39797288167024836  1.0000
  H   H40       1.0  0.529225302020115  0.13263213870759108  0.6020271185421816  1.0000
  H   H41       1.0  0.656277840765812  0.9313354253496604  0.4313146765935412  1.0000
  H   H42       1.0  0.3437221586885274  0.43133542552447507  0.5686853233803498  1.0000
  H   H43       1.0  0.1373261661000182  0.959744909907977  0.5158625684449845  1.0000
  H   H44       1.0  0.8626738333543212  0.45974490970715054  0.4841374315289066  1.0000
  H   H45       1.0  0.12097490815263398  0.04201534209247922  0.4249601060836973  1.0000
  H   H46       1.0  0.8790250926853136  0.5420153422933056  0.5750398941287327  1.0000
  H   H47       1.0  0.5331786643108656  0.13245975283466205  0.24224745802698502  1.0000
  H   H48       1.0  0.46682133514347385  0.6324597530354885  0.7577525419469061  1.0000
  H   H49       1.0  0.2481276122468016  0.15515449681999688  0.27516074253270184  1.0000
  H   H50       1.0  0.751872388591146  0.6551544970208234  0.724839257679728  1.0000
  H   H51       1.0  0.2364958370508125  0.1336380618573016  0.41351378156632634  1.0000
  H   H52       1.0  0.7635041624035269  0.6336380616824868  0.5864862184075648  1.0000
  H   H53       1.0  0.09279289156324866  0.10572258039498363  0.28746195905988253  1.0000
  H   H54       1.0  0.9072071078910909  0.6057225802201689  0.7125380409140085  1.0000
  H   H55       1.0  0.3807083652837382  0.8530461838158455  0.6748177365904932  1.0000
  H   H56       1.0  0.6192916355542095  0.3530461839906602  0.3251822636219368  1.0000
  H   H57       1.0  0.24985806895480278  0.9085656879820414  0.64466857370727  1.0000
  H   H58       1.0  0.7501419304995366  0.40856568778121494  0.35533142626662095  1.0000
  H   H59       1.0  0.01629230507225889  0.8669800820373814  0.4834793897436143  1.0000
  H   H60       1.0  0.9837076957656887  0.36698008221219613  0.5165206104688156  1.0000
  H   H61       1.0  0.06377108421611502  0.8254643896792292  0.6047934901963817  1.0000
  H   H62       1.0  0.9362289152382244  0.3254643894784027  0.3952065097775093  1.0000
  H   H63       1.0  0.16292604568050106  0.8142947868733468  0.4888026060159103  1.0000
  H   H64       1.0  0.8370739551574465  0.31429478704816144  0.5111973941965197  1.0000
  H   H65       1.0  0.4479106633381257  0.8158802315917686  0.49491011064002843  1.0000
  H   H66       1.0  0.5520893374998219  0.31588023139094207  0.5050898895724015  1.0000
  H   H67       1.0  0.5560648443947895  0.8585295068789471  0.42266098050085704  1.0000
  H   H68       1.0  0.44393515644315806  0.3585295066781206  0.5773390197115729  1.0000
  H   H69       1.0  0.6718917625246502  0.8413955574439109  0.6885336541548519  1.0000
  H   H70       1.0  0.3281082369296892  0.3413955576187257  0.31146634581903915  1.0000
  H   H71       1.0  0.7937176256303468  0.8782588457966674  0.6102899882789664  1.0000
  H   H72       1.0  0.20628237382399267  0.37825884597148196  0.3897100116949246  1.0000
  H   H73       1.0  0.7788472667584723  0.8119162050878431  0.5907966571544557  1.0000
  H   H74       1.0  0.2211527340794754  0.3119162052626579  0.40920334305797423  1.0000
  H   H75       1.0  0.5416146313075572  0.49999765469725266  0.005748568191636638  1.0000
  H   H76       1.0  0.4583853681467822  0.9999976545224379  0.9942514317822544  1.0000
  H   H77       1.0  0.012338060028094506  0.5781304217675524  0.9402041266902506  1.0000
  H   H78       1.0  0.987661940809853  0.0781304215667259  0.059795873522179376  1.0000
  H   H79       1.0  0.08600454111199432  0.5044252194212412  0.8444871647395923  1.0000
  H   H80       1.0  0.9139954583423452  0.0044252195960559505  0.1555128352342987  1.0000
  H   H81       1.0  0.8026427320295686  0.338105851747399  0.7685674893722098  1.0000
  H   H82       1.0  0.1973572674247709  0.8381058515725842  0.23143251060168119  1.0000
  H   H83       1.0  0.1908102990243606  0.4150463333134013  0.8347796422945098  1.0000
  H   H84       1.0  0.809189701813587  0.9150463335142277  0.16522035791792006  1.0000
  H   H85       1.0  0.05604676196490724  0.4392461776261599  0.7012821679768677  1.0000
  H   H86       1.0  0.9439532388730403  0.9392461778269865  0.2987178322355623  1.0000
  H   H87       1.0  0.06616984363707405  0.37289308282309186  0.7268165812625312  1.0000
  H   H88       1.0  0.9338301558172654  0.8728930826482771  0.2731834187113597  1.0000
  H   H89       1.0  0.5898182468177348  0.5513567636749876  0.1405068078482419  1.0000
  H   H90       1.0  0.41018175263660467  0.051356763849802305  0.8594931921256491  1.0000
  H   H91       1.0  0.6396112195502568  0.6152012567596562  0.17212307909076272  1.0000
  H   H92       1.0  0.36038878128769086  0.1152012565588298  0.8278769211216673  1.0000
  H   H93       1.0  0.3946400332714826  0.6410458670471434  0.9930112926668366  1.0000
  H   H94       1.0  0.6053599661828569  0.1410458668463169  0.0069887073070544195  1.0000
  H   H95       1.0  0.30156050736099166  0.6022442923304793  0.08410604337505516  1.0000
  H   H96       1.0  0.698439493476956  0.10224429250529402  0.9158939568373747  1.0000
  H   H97       1.0  0.3438529137409412  0.5772184363364866  0.9555097191902868  1.0000
  H   H98       1.0  0.6561470857133983  0.07721843651130132  0.044490280783604376  1.0000
  H   H99       1.0  0.7059474958009497  0.6658648300174544  0.01680699056628158  1.0000
  H   H100      1.0  0.2940525050369979  0.1658648301922692  0.9831930096461484  1.0000
  H   H101      1.0  0.8529392418017355  0.6381720816164063  0.9429803419490332  1.0000
  H   H102      1.0  0.14706075765260399  0.13817208179122106  0.057019658024857804  1.0000
  H   H103      1.0  0.9310977910086642  0.6532336554336563  0.207563463978602  1.0000
  H   H104      1.0  0.06890220844567517  0.15323365523282978  0.792436535995289  1.0000
  H   H105      1.0  0.04719378400283735  0.6825831798094749  0.11497019691039576  1.0000
  H   H106      1.0  0.9528062168351102  0.1825831796086484  0.8850298033020342  1.0000
  H   H107      1.0  0.07601073855388464  0.6170336915690212  0.14396320801760706  1.0000
  H   H108      1.0  0.9239892609004547  0.11703369174383592  0.856036791956284  1.0000
  C   C1        1.0  0.6590083134993835  0.7463068888511211  0.33336706591057225  1.0000
  C   C2        1.0  0.34099168595495594  0.24630688865029465  0.6666329340633188  1.0000
  C   C3        1.0  0.6603367260890952  0.2348001876967294  0.15920738035643636  1.0000
  C   C4        1.0  0.3396632733652442  0.7348001878975559  0.8407926196174547  1.0000
  C   C5        1.0  0.1164806232085742  0.3373158133444717  0.05985683930388122  1.0000
  C   C6        1.0  0.8835193776293734  0.8373158135452982  0.9401431609085488  1.0000
  C   C7        1.0  0.9786475020744783  0.357724478313612  0.10558488123642223  1.0000
  C   C8        1.0  0.021352498763469313  0.8577244781387974  0.8944151189760078  1.0000
  C   C9        1.0  0.00300465563522889  0.40523634763256944  0.15434676044399587  1.0000
  C   C10       1.0  0.9969953438191106  0.9052363474577547  0.8456532395298952  1.0000
  C   C11       1.0  0.16619753683549862  0.4321742097573615  0.15838278943685796  1.0000
  C   C12       1.0  0.8338024626188407  0.932174209958188  0.841617210537033  1.0000
  C   C13       1.0  0.298077413120614  0.4124094903231281  0.10725172724261395  1.0000
  C   C14       1.0  0.7019225863337255  0.9124094905239546  0.8927482727312771  1.0000
  C   C15       1.0  0.27426992723969945  0.36462447238786394  0.058056581998122456  1.0000
  C   C16       1.0  0.7257300735982481  0.8646244722130492  0.9419434182143074  1.0000
  C   C17       1.0  0.19967053026156253  0.6339238806760431  0.42859555873948985  1.0000
  C   C18       1.0  0.8003294705763851  0.13392388085085777  0.57140444147294  1.0000
  C   C19       1.0  0.03589557079963187  0.6079716871281395  0.42264289790053816  1.0000
  C   C20       1.0  0.9641044286547076  0.10797168730295416  0.5773571020733528  1.0000
  C   C21       1.0  0.011586704821312426  0.560289007751034  0.37356792508373066  1.0000
  C   C22       1.0  0.9884132960213976  0.06028900755020748  0.6264320742932947  1.0000
  C   C23       1.0  0.1494296978074016  0.5391385877946239  0.32954423595454035  1.0000
  C   C24       1.0  0.8505703030305459  0.03913858796943856  0.6704557642578896  1.0000
  C   C25       1.0  0.3173486699963975  0.5647133581133824  0.3403375513889604  1.0000
  C   C26       1.0  0.6826513294579419  0.06471335828819708  0.6596624485849307  1.0000
  C   C27       1.0  0.3420129916839759  0.612204283557939  0.3895355395358072  1.0000
  C   C28       1.0  0.6579870091539717  0.11220428335711248  0.6104644606766226  1.0000
  C   C29       1.0  0.5370997724393715  0.9545924978065614  0.431209693717943  1.0000
  C   C30       1.0  0.4629002283985761  0.45459249798137613  0.5687903064944869  1.0000
  C   C31       1.0  0.39809836777901547  0.9377975641674695  0.48186786037377416  1.0000
  C   C32       1.0  0.6019016330589321  0.4377975643422843  0.5181321398386557  1.0000
  C   C33       1.0  0.25035520513078924  0.9716392721912486  0.48114533910461393  1.0000
  C   C34       1.0  0.7496447957071584  0.4716392719904222  0.5188546611078161  1.0000
  C   C35       1.0  0.24174771425484184  0.018498502860929654  0.4303581637012259  1.0000
  C   C36       1.0  0.7582522865831058  0.5184985030617562  0.569641836511204  1.0000
  C   C37       1.0  0.38007678149000484  0.03588100204911878  0.38011649936200115  1.0000
  C   C38       1.0  0.6199232179643347  0.5358810018743041  0.6198835006118899  1.0000
  C   C39       1.0  0.5271262592897266  0.002235903120235097  0.3830325774840676  1.0000
  C   C40       1.0  0.4728737401646129  0.5022359029454204  0.6169674224898235  1.0000
  C   C41       1.0  0.3812955666936149  0.08422549020215458  0.3275417379353548  1.0000
  C   C42       1.0  0.6187044327607245  0.584225490402981  0.6724582620385362  1.0000
  C   C43       1.0  0.5259859928161994  0.09620524361577634  0.2827915937482069  1.0000
  C   C44       1.0  0.47401400663814003  0.5962052438166028  0.7172084062256842  1.0000
  C   C45       1.0  0.6778914772634181  0.06295529592623364  0.2888897689928476  1.0000
  C   C46       1.0  0.3221085221909214  0.5629552957514189  0.7111102309810435  1.0000
  C   C47       1.0  0.23124642376436105  0.12163159997961791  0.3245574439425527  1.0000
  C   C48       1.0  0.7687535770735866  0.6216316001804443  0.6754425562698771  1.0000
  C   C49       1.0  0.291020388093396  0.8752350604539203  0.6036089629923599  1.0000
  C   C50       1.0  0.7089796113609435  0.3752350602530939  0.3963910369815311  1.0000
  C   C51       1.0  0.12355886652789437  0.8439011934751361  0.5414470442979872  1.0000
  C   C52       1.0  0.8764411343100532  0.343901193649951  0.45855295591444273  1.0000
  C   C53       1.0  0.5261949691811084  0.8513099146530075  0.5061708834197443  1.0000
  C   C54       1.0  0.47380503027323106  0.35130991445218107  0.4938291165541468  1.0000
  C   C55       1.0  0.7029562859378424  0.8455465300488284  0.6044375763253845  1.0000
  C   C56       1.0  0.29704371351649705  0.34554653022364307  0.3955624236485065  1.0000
  C   C57       1.0  0.6646369884888215  0.5016046135133977  0.9745704444674351  1.0000
  C   C58       1.0  0.3353630109655182  0.001604613688212399  0.025429555506455943  1.0000
  C   C59       1.0  0.77086411589359  0.5460189159257943  0.9827889907375474  1.0000
  C   C60       1.0  0.22913588494435755  0.046018916100609035  0.017211009474882456  1.0000
  C   C61       1.0  0.9255792010950502  0.5450899034309883  0.9348839382975896  1.0000
  C   C62       1.0  0.07442079974289746  0.045089903230161786  0.06511606191484029  1.0000
  C   C63       1.0  0.9689984288437953  0.5027555525678443  0.8817447641915329  1.0000
  C   C64       1.0  0.03100157061054408  0.0027555527426590697  0.1182552357823581  1.0000
  C   C65       1.0  0.8631754782025235  0.4582823514954768  0.871629037409906  1.0000
  C   C66       1.0  0.13682452125181588  0.9582823513206621  0.12837096256398509  1.0000
  C   C67       1.0  0.711227358235867  0.4596082352906208  0.9201854314060068  1.0000
  C   C68       1.0  0.28877264121847257  0.959608235115806  0.07981456856788414  1.0000
  C   C69       1.0  0.8977482583337951  0.413461753696634  0.8153989550480634  1.0000
  C   C70       1.0  0.10225174250415246  0.9134617535218194  0.18460104516436654  1.0000
  C   C71       1.0  0.7797784218756864  0.3732712081256161  0.8088744785179567  1.0000
  C   C72       1.0  0.22022157757865307  0.8732712079508014  0.1911255214559344  1.0000
  C   C73       1.0  0.6305363410459199  0.37412910573339736  0.8612244504945269  1.0000
  C   C74       1.0  0.3694636597920277  0.8741291059342238  0.13877554971790304  1.0000
  C   C75       1.0  0.060843213925966345  0.4097836720260626  0.7663943573772074  1.0000
  C   C76       1.0  0.9391567869119813  0.9097836718512479  0.23360564283522256  1.0000
  C   C77       1.0  0.5903271276829984  0.5884388795475889  0.10007638199672142  1.0000
  C   C78       1.0  0.40967287177134104  0.0884388797224036  0.8999236179771696  1.0000
  C   C79       1.0  0.3964375135150475  0.6029353372600212  0.028650254919242498  1.0000
  C   C80       1.0  0.6035624873229001  0.10293533705919478  0.9713497452931874  1.0000
  C   C81       1.0  0.8128353178707816  0.6368460013609215  0.0245192712430979  1.0000
  C   C82       1.0  0.18716468158355792  0.13684600153573614  0.9754807287307932  1.0000
  C   C83       1.0  0.9763741146666799  0.6480819262479193  0.1285362811518037  1.0000
  C   C84       1.0  0.023625886171267714  0.14808192604709278  0.8714637190606263  1.0000
  N   N1        1.0  0.4848753422628767  0.7560665983397966  0.2733747380799823  1.0000
  N   N2        1.0  0.515124658575071  0.25606659851461133  0.7266252621324475  1.0000
  N   N3        1.0  0.6950624309564751  0.71880944344056  0.43143860831181097  1.0000
  N   N4        1.0  0.30493756988623494  0.21880944323973356  0.5685613910652144  1.0000
  N   N5        1.0  0.7993459299898394  0.7636262814467586  0.29491924063647773  1.0000
  N   N6        1.0  0.20065406946449998  0.2636262816215733  0.7050807593374134  1.0000
  N   N7        1.0  0.8364907704833174  0.22575983709209252  0.21676606331777343  1.0000
  N   N8        1.0  0.163509228971022  0.7257598369172777  0.7832339366561176  1.0000
  N   N9        1.0  0.6159764492539563  0.24805314310717486  0.04722034668430168  1.0000
  N   N10       1.0  0.38402355158399126  0.74805314293236  0.9527796535281282  1.0000
  N   N11       1.0  0.5271817535617499  0.23038329493887347  0.21398925565036772  1.0000
  N   N12       1.0  0.4728182458925896  0.7303832947640588  0.7860107443235234  1.0000
  N   N13       1.0  0.20883411291498571  0.47941775406849896  0.2118355549127136  1.0000
  N   N14       1.0  0.7911658865393537  0.9794177542693253  0.7881644450611774  1.0000
  N   N15       1.0  0.10679382445629053  0.49190618950879755  0.27606367842071444  1.0000
  N   N16       1.0  0.8932061749980489  0.9919061893339828  0.7239363215531766  1.0000
  N   N17       1.0  0.4040432977339392  0.890591308630077  0.5278930967055973  1.0000
  N   N18       1.0  0.5959567031040083  0.39059130880489173  0.4721069035068326  1.0000
  N   N19       1.0  0.7268137957484881  0.5883480138225743  0.03367669235190305  1.0000
  N   N20       1.0  0.2731862037058512  0.08834801399738901  0.9663233076219879  1.0000
  O   O1        1.0  0.90232668143535  0.2682435075810561  0.9364340566992783  1.0000
  O   O2        1.0  0.09767331802375187  0.7682435074062414  0.06356594243920835  1.0000
  O   O3        1.0  0.13437073682931322  0.2429194307997068  0.11415784961545368  1.0000
  O   O4        1.0  0.8656292640086343  0.7429194306248921  0.8858421505969762  1.0000
  O   O5        1.0  0.23300956532101802  0.2678236278823517  0.9442297174645721  1.0000
  O   O6        1.0  0.7669904355169296  0.7678236280831782  0.055770282747857856  1.0000
  O   O7        1.0  0.18031585009878548  0.7281096577352718  0.37058143268731764  1.0000
  O   O8        1.0  0.8196841507391621  0.22810965791008647  0.6294185675251123  1.0000
  O   O9        1.0  0.08315477878973032  0.7043001245251551  0.5424832471447466  1.0000
  O   O10       1.0  0.9168452220482173  0.2043001246999698  0.4575167530676833  1.0000
  O   O11       1.0  0.4126120391915809  0.704128017002346  0.5483492981601662  1.0000
  O   O12       1.0  0.5873879616463666  0.20412801717716061  0.4516507020522636  1.0000
  O   O13       1.0  0.6714789883499838  0.01571118026485027  0.3393907997088211  1.0000
  O   O14       1.0  0.32852101110435566  0.5157111800900356  0.66060920026507  1.0000
  O   O15       1.0  0.8157321648987044  0.07136052893950749  0.2548074950828323  1.0000
  O   O16       1.0  0.18426783455563514  0.571360529140334  0.7451925048910586  1.0000
  O   O17       1.0  0.5998153293209431  0.41819569400251544  0.9152618530625891  1.0000
  O   O18       1.0  0.4001846715170045  0.9181956942033419  0.08473814714984088  1.0000
  O   O19       1.0  0.5232578546320713  0.3391177641202006  0.8662870640551  1.0000
  O   O20       1.0  0.4767421448222681  0.839117764321027  0.13371293591879096  1.0000
  S   S1        1.0  0.09259461289558894  0.27448742140748483  0.008000154125857849  1.0000
  S   S2        1.0  0.9074053865587505  0.7744874216083113  0.9919998458480332  1.0000
  S   S3        1.0  0.22095812398242043  0.6971225342429381  0.47661989132212257  1.0000
  S   S4        1.0  0.779041875471919  0.19712253404211166  0.5233801086517684  1.0000
