data_image0
_chemical_formula_structural       C8N4I4
_chemical_formula_sum              "C8 N4 I4"
_cell_length_a       10.071817838921914
_cell_length_b       7.3844367314295685
_cell_length_c       4.151773835544223
_cell_angle_alpha    90.0
_cell_angle_beta     88.70542414315408
_cell_angle_gamma    90.0

_space_group_name_H-M_alt    "P 1"
_space_group_IT_number       1

loop_
  _space_group_symop_operation_xyz
  'x, y, z'

loop_
  _atom_site_type_symbol
  _atom_site_label
  _atom_site_symmetry_multiplicity
  _atom_site_fract_x
  _atom_site_fract_y
  _atom_site_fract_z
  _atom_site_occupancy
  C   C1        1.0  0.0602026425301681  0.15901568971431573  0.4181094591685218  1.0000
  C   C2        1.0  0.5602026422683895  0.65901568894042  0.4181094581166363  1.0000
  C   C3        1.0  0.9397973568699498  0.15901568971431573  0.5818905415102198  1.0000
  C   C4        1.0  0.4397973571317285  0.65901568894042  0.5818905425621054  1.0000
  C   C5        1.0  0.9397973568699498  0.8409843100920922  0.5818905415102198  1.0000
  C   C6        1.0  0.4397973571317285  0.34098431086598796  0.5818905425621054  1.0000
  C   C7        1.0  0.0602026425301681  0.8409843100920922  0.4181094591685218  1.0000
  C   C8        1.0  0.5602026422683895  0.34098431086598796  0.4181094581166363  1.0000
  N   N1        1.0  0.10919732558415775  0.0  0.34123702553192947  1.0000
  N   N2        1.0  0.6091973253731211  0.5000000005803037  0.34123702688272595  1.0000
  N   N3        1.0  0.8908026747570439  0.0  0.6587629725667067  1.0000
  N   N4        1.0  0.39080267402699687  0.5000000005803037  0.6587629737960158  1.0000
  I   I1        1.0  0.36533134019281904  0.0  0.035168168240286506  1.0000
  I   I2        1.0  0.8653313399817825  0.5000000005803037  0.035168169591083064  1.0000
  I   I3        1.0  0.6346686601483827  0.0  0.9648318298583496  1.0000
  I   I4        1.0  0.1346686604101614  0.5000000005803037  0.964831830910235  1.0000
