data_image0
_chemical_formula_structural       C32N8I8
_chemical_formula_sum              "C32 N8 I8"
_cell_length_a       13.378056280382163
_cell_length_b       10.63254360210189
_cell_length_c       7.365654735802132
_cell_angle_alpha    90.0
_cell_angle_beta     115.90116353067144
_cell_angle_gamma    90.0

_space_group_name_H-M_alt    "P 1"
_space_group_IT_number       1

loop_
  _space_group_symop_operation_xyz
  'x, y, z'

loop_
  _atom_site_type_symbol
  _atom_site_label
  _atom_site_symmetry_multiplicity
  _atom_site_fract_x
  _atom_site_fract_y
  _atom_site_fract_z
  _atom_site_occupancy
  C   C1        1.0  0.3686329767812461  0.5091309372980011  0.24597150694759362  1.0000
  C   C2        1.0  0.8686329774450868  0.009130937396843383  0.24597150736309456  1.0000
  C   C3        1.0  0.6313670227334005  0.5091309372980011  0.25402849240633424  1.0000
  C   C4        1.0  0.1313670228284247  0.009130937396843383  0.25402849203975153  1.0000
  C   C5        1.0  0.6313670227766588  0.4908690625043143  0.7540284925355629  1.0000
  C   C6        1.0  0.13136702287168286  0.990869062405472  0.7540284921689802  1.0000
  C   C7        1.0  0.3686329768245043  0.4908690625043143  0.7459715070768222  1.0000
  C   C8        1.0  0.868632977488345  0.990869062405472  0.7459715074923232  1.0000
  C   C9        1.0  0.36880626077999196  0.30712244710235304  0.24788462127354247  1.0000
  C   C10       1.0  0.8688062614438328  0.8071224479440194  0.2478846216890434  1.0000
  C   C11       1.0  0.6311937387346546  0.30712244710235304  0.2521153780803854  1.0000
  C   C12       1.0  0.1311937388296788  0.8071224479440194  0.25211537771380266  1.0000
  C   C13       1.0  0.6311937387779128  0.6928775526999624  0.752115378209614  1.0000
  C   C14       1.0  0.131193738872937  0.19287755279880464  0.7521153778430314  1.0000
  C   C15       1.0  0.3688062608232502  0.6928775526999624  0.7478846214027712  1.0000
  C   C16       1.0  0.868806261487091  0.19287755279880464  0.7478846218182722  1.0000
  C   C17       1.0  0.45015628588160195  0.5686421609223193  0.2488435379542945  1.0000
  C   C18       1.0  0.9501562857865778  0.06864216102116165  0.24884353832087722  1.0000
  C   C19       1.0  0.5498437136330446  0.5686421609223193  0.2511564613996333  1.0000
  C   C20       1.0  0.04984371406663208  0.06864216102116165  0.25115646254151697  1.0000
  C   C21       1.0  0.5498437136763028  0.431357838879996  0.7511564615288621  1.0000
  C   C22       1.0  0.049843714109890296  0.9313578387811539  0.7511564626707458  1.0000
  C   C23       1.0  0.4501562859248602  0.431357838879996  0.7488435380835232  1.0000
  C   C24       1.0  0.950156285829836  0.9313578387811539  0.748843538450106  1.0000
  C   C25       1.0  0.45035405212602236  0.24844620618135  0.2490790671305298  1.0000
  C   C26       1.0  0.9503540520309982  0.7484462060825077  0.24907906749711253  1.0000
  C   C27       1.0  0.5496459477271874  0.24844620618135  0.2509209337318643  1.0000
  C   C28       1.0  0.04964594782221168  0.7484462060825077  0.25092093336528165  1.0000
  C   C29       1.0  0.5496459477704457  0.7515537945614741  0.7509209338610932  1.0000
  C   C30       1.0  0.04964594786546991  0.2515537937198077  0.7509209334945105  1.0000
  C   C31       1.0  0.4503540521692806  0.7515537945614741  0.7490790672597586  1.0000
  C   C32       1.0  0.9503540517356931  0.2515537937198077  0.749079066117875  1.0000
  N   N1        1.0  0.31211118434563556  0.4082715794498936  0.24633423320803718  1.0000
  N   N2        1.0  0.8121111839120482  0.9082715793510513  0.24633423206615354  1.0000
  N   N3        1.0  0.6878888162664392  0.4082715794498936  0.2536657677032752  1.0000
  N   N4        1.0  0.18788881636146343  0.9082715793510513  0.2536657673366925  1.0000
  N   N5        1.0  0.6878888163096973  0.5917284203524218  0.7536657678325039  1.0000
  N   N6        1.0  0.18788881640472166  0.09172842045126406  0.7536657674659213  1.0000
  N   N7        1.0  0.3121111843888938  0.5917284203524218  0.746334233337266  1.0000
  N   N8        1.0  0.8121111839553063  0.09172842045126406  0.7463342321953824  1.0000
  I   I1        1.0  0.1042526257340581  0.4026304175375039  0.25968739248186673  1.0000
  I   I2        1.0  0.6042526256390338  0.9026304174386616  0.25968739284844944  1.0000
  I   I3        1.0  0.8957473745394534  0.4026304175375039  0.24031260692097936  1.0000
  I   I4        1.0  0.3957473746344777  0.9026304174386616  0.24031260655439665  1.0000
  I   I5        1.0  0.8957473745827117  0.5973695822648114  0.7403126070502082  1.0000
  I   I6        1.0  0.3957473746777359  0.09736958236365377  0.7403126066836254  1.0000
  I   I7        1.0  0.10425262577731627  0.5973695822648114  0.7596873926110954  1.0000
  I   I8        1.0  0.6042526256822922  0.09736958236365377  0.7596873929776782  1.0000
