data_image0
_chemical_formula_structural       H24C36N8F8S4I4
_chemical_formula_sum              "H24 C36 N8 F8 S4 I4"
_cell_length_a       13.25135827614036
_cell_length_b       7.015759289984065
_cell_length_c       11.475627235878306
_cell_angle_alpha    90.0
_cell_angle_beta     96.94675960872937
_cell_angle_gamma    90.0

_space_group_name_H-M_alt    "P 1"
_space_group_IT_number       1

loop_
  _space_group_symop_operation_xyz
  'x, y, z'

loop_
  _atom_site_type_symbol
  _atom_site_label
  _atom_site_symmetry_multiplicity
  _atom_site_fract_x
  _atom_site_fract_y
  _atom_site_fract_z
  _atom_site_occupancy
  H   H1        1.0  0.6929256422665135  0.6822584074162088  0.8017296581549407  1.0000
  H   H2        1.0  0.30707435754161005  0.1822584067023919  0.6982703416245398  1.0000
  H   H3        1.0  0.30707435793037763  0.31774159258606255  0.1982703423055987  1.0000
  H   H4        1.0  0.6929256425580984  0.8177415932998794  0.30172965795816437  1.0000
  H   H5        1.0  0.7029933986607049  0.9337949264241191  0.956132219140084  1.0000
  H   H6        1.0  0.29700660190140205  0.43379492571030215  0.5438677806333025  1.0000
  H   H7        1.0  0.2970066014390037  0.06620507357815222  0.04386778044262025  1.0000
  H   H8        1.0  0.7029933982954893  0.5662050742919691  0.4561322198272369  1.0000
  H   H9        1.0  0.8152830543199688  0.8752590669361386  0.14680033378355561  1.0000
  H   H10       1.0  0.18471694541452413  0.37525906622232186  0.35319966648630147  1.0000
  H   H11       1.0  0.18471694587692247  0.12474093306613256  0.8531996666769838  1.0000
  H   H12       1.0  0.8152830540283841  0.6247409337799494  0.646800333980332  1.0000
  H   H13       1.0  0.9084400543053038  0.5633321479034062  0.1723872153487721  1.0000
  H   H14       1.0  0.09155994608598957  0.0633321471895894  0.3276127840371557  1.0000
  H   H15       1.0  0.09155994579440471  0.436667852098865  0.8276127842339319  1.0000
  H   H16       1.0  0.908440054013719  0.936667852812682  0.6723872155455485  1.0000
  H   H17       1.0  0.9522945886240956  0.06544955022267346  0.9035254251074519  1.0000
  H   H18       1.0  0.04770541128121105  0.5654495509364904  0.5964745755498638  1.0000
  H   H19       1.0  0.04770541157279588  0.9345504497795979  0.09647457535308748  1.0000
  H   H20       1.0  0.9522945889156804  0.43455044906578094  0.40352542491067556  1.0000
  H   H21       1.0  0.8800253737190596  0.2524284238953732  0.8327558144961628  1.0000
  H   H22       1.0  0.11997462684304713  0.7524284246091901  0.6672441852772237  1.0000
  H   H23       1.0  0.11997462647783161  0.7475715761068982  0.16724418596437668  1.0000
  H   H24       1.0  0.8800253732566614  0.24757157539308122  0.3327558143054804  1.0000
  C   C1        1.0  0.5282654820190184  0.18337452823341122  0.4738364440773881  1.0000
  C   C2        1.0  0.4717345177154746  0.6833745275218656  0.02616355619246897  1.0000
  C   C3        1.0  0.47173451817787304  0.81662547176886  0.5261635563831514  1.0000
  C   C4        1.0  0.5282654824814168  0.3166254724804056  0.9738364442680705  1.0000
  C   C5        1.0  0.5382226372895728  0.9201618375385656  0.6057011468338204  1.0000
  C   C6        1.0  0.46177736251855084  0.4201618382501112  0.89429885294566  1.0000
  C   C7        1.0  0.4617773629073185  0.07983816246370565  0.39429885362671907  1.0000
  C   C8        1.0  0.5382226375811576  0.57983816175216  0.10570114663704398  1.0000
  C   C9        1.0  0.568245468786769  0.10514922612199193  0.581335358732275  1.0000
  C   C10       1.0  0.4317545317753379  0.6051492268358089  0.9186646410411115  1.0000
  C   C11       1.0  0.4317545313129396  0.8948507738802793  0.4186646408504291  1.0000
  C   C12       1.0  0.5682454684215534  0.3948507731664625  0.08133535941942804  1.0000
  C   C13       1.0  0.740336973155778  0.6614311549463864  0.8849864941534583  1.0000
  C   C14       1.0  0.2596630267495286  0.1614311542325695  0.6150135065038576  1.0000
  C   C15       1.0  0.2596630270411134  0.33856884505588486  0.11501350630708118  1.0000
  C   C16       1.0  0.7403369734473628  0.8385688457697018  0.3849864939566819  1.0000
  C   C17       1.0  0.7458867592685591  0.8019547874215591  0.9717277357234982  1.0000
  C   C18       1.0  0.2541132405395648  0.3019547881331048  0.5282722640559823  1.0000
  C   C19       1.0  0.2541132408311496  0.19804521258071212  0.028272263859205973  1.0000
  C   C20       1.0  0.7458867589033433  0.6980452118691665  0.47172773641065113  1.0000
  C   C21       1.0  0.8070337842241019  0.7683064722153891  0.07731377740306018  1.0000
  C   C22       1.0  0.19296621551039103  0.26830647292693466  0.4226862228667969  1.0000
  C   C23       1.0  0.1929662159727894  0.2316935277868822  0.9226862230574793  1.0000
  C   C24       1.0  0.8070337839325171  0.7316935270753366  0.5773137775998365  1.0000
  C   C25       1.0  0.8593947548735128  0.5961765629518199  0.09184237923652179  1.0000
  C   C26       1.0  0.14060524551778064  0.09617656223800297  0.40815762014940604  1.0000
  C   C27       1.0  0.14060524522619583  0.40382343705045143  0.9081576203461825  1.0000
  C   C28       1.0  0.8593947545819278  0.9038234377642683  0.5918423794332981  1.0000
  C   C29       1.0  0.8502109752024395  0.46421784519454307  0.9999238178318955  1.0000
  C   C30       1.0  0.14978902460568427  0.96421784590836  0.500076181947585  1.0000
  C   C31       1.0  0.14978902424046872  0.5357821548077283  7.618263473789715e-05  1.0000
  C   C32       1.0  0.8502109754940244  0.03578215409391137  0.49992381763511917  1.0000
  C   C33       1.0  0.9082829679290356  0.28125975086076277  0.009599383395429078  1.0000
  C   C34       1.0  0.09171703180545733  0.7812597515745796  0.49040061687442804  1.0000
  C   C35       1.0  0.09171703226785569  0.7187402491415085  0.9904006170651104  1.0000
  C   C36       1.0  0.9082829676374509  0.21874024842769166  0.5095993835922054  1.0000
  N   N1        1.0  0.7910961413093177  0.49636093344472615  0.8974645005306789  1.0000
  N   N2        1.0  0.20890385925278912  0.9963609327331806  0.6025354992427076  1.0000
  N   N3        1.0  0.2089038587903908  0.5036390665575451  0.1025354990520252  1.0000
  N   N4        1.0  0.7910961408469194  0.003639067269090697  0.39746450033999664  1.0000
  N   N5        1.0  0.9112008101111155  0.1898668490382351  0.9091425150405612  1.0000
  N   N6        1.0  0.08879918979419092  0.6898668483266895  0.5908574856167547  1.0000
  N   N7        1.0  0.08879919008577573  0.8101331509640362  0.0908574854199783  1.0000
  N   N8        1.0  0.9112008104027004  0.31013315167558175  0.4091425148437848  1.0000
  F   F1        1.0  0.5736226327803916  0.8365778866414516  0.7088581129789912  1.0000
  F   F2        1.0  0.426377367124915  0.3365778859276347  0.7911418876783245  1.0000
  F   F3        1.0  0.4263773674164998  0.16342211336081974  0.2911418874815482  1.0000
  F   F4        1.0  0.5736226330719765  0.6634221140746367  0.20885811278221497  1.0000
  F   F5        1.0  0.5533191877025203  0.3624077245109952  0.4446495574712216  1.0000
  F   F6        1.0  0.4466808119347899  0.862407725224812  0.055350441920800214  1.0000
  F   F7        1.0  0.4466808116432051  0.6375922754912762  0.5553504421175766  1.0000
  F   F8        1.0  0.5533191881649187  0.13759227477745925  0.944649557661904  1.0000
  S   S1        1.0  0.9654203732178734  0.2028992474174856  0.13932014249116975  1.0000
  S   S2        1.0  0.034579626516619694  0.7028992467059401  0.36067985777868733  1.0000
  S   S3        1.0  0.03457962688183523  0.7971007525847856  0.8606798570915345  1.0000
  S   S4        1.0  0.9654203736802717  0.2971007532963313  0.6393201426818521  1.0000
  I   I1        1.0  0.6691477900508078  0.25826987715881505  0.7018033156505983  1.0000
  I   I2        1.0  0.33085220985449876  0.758269877872632  0.7981966850067176  1.0000
  I   I3        1.0  0.33085220939210036  0.7417301228434563  0.2981966848160352  1.0000
  I   I4        1.0  0.6691477903423926  0.24173012212963935  0.2018033154538219  1.0000
