data_image0
_chemical_formula_structural       H14C26N2F8S2I4
_chemical_formula_sum              "H14 C26 N2 F8 S2 I4"
_cell_length_a       5.8260823742280845
_cell_length_b       10.155656283517976
_cell_length_c       13.169121772890772
_cell_angle_alpha    88.48446747927136
_cell_angle_beta     85.23898856688533
_cell_angle_gamma    82.19378953905414

_space_group_name_H-M_alt    "P 1"
_space_group_IT_number       1

loop_
  _space_group_symop_operation_xyz
  'x, y, z'

loop_
  _atom_site_type_symbol
  _atom_site_label
  _atom_site_symmetry_multiplicity
  _atom_site_fract_x
  _atom_site_fract_y
  _atom_site_fract_z
  _atom_site_occupancy
  H   H1        1.0  0.6087654704866546  0.9256242566927572  0.046451988493553205  1.0000
  H   H2        1.0  0.391234530278774  0.07437574331011576  0.953548012073256  1.0000
  H   H3        1.0  0.5816123871219364  0.1543001939440156  0.11517680279696293  1.0000
  H   H4        1.0  0.4183876137916048  0.8456998060711673  0.8848231970077869  1.0000
  H   H5        1.0  0.9031150945651919  0.21515273194912465  0.2106950442961603  1.0000
  H   H6        1.0  0.0968849063483495  0.7848472680660582  0.7893049555085895  1.0000
  H   H7        1.0  0.24576714814076167  0.04725987156838512  0.23812606447495327  1.0000
  H   H8        1.0  0.7542328527727796  0.9527401284467978  0.7618739353297964  1.0000
  H   H9        1.0  0.27287140473729854  0.8227933844026353  0.17147953606685312  1.0000
  H   H10       1.0  0.727128594312431  0.17720661560010967  0.8285204644963793  1.0000
  H   H11       1.0  0.1730296313313308  0.5502310215046295  0.03305353612623917  1.0000
  H   H12       1.0  0.8269703678665115  0.44976897851042524  0.9669464636749339  1.0000
  H   H13       1.0  0.3063830068677648  0.6824466034259263  0.0727345116879518  1.0000
  H   H14       1.0  0.6936169923300775  0.31755339658912846  0.9272654881132212  1.0000
  C   C1        1.0  0.9436816476446223  0.85963542189068  0.10052323769578891  1.0000
  C   C2        1.0  0.056318353120806165  0.14036457811219302  0.8994767628710202  1.0000
  C   C3        1.0  0.7487996635076847  0.9542945197719632  0.08731421886265224  1.0000
  C   C4        1.0  0.25120033725774404  0.04570548023090968  0.912685781704157  1.0000
  C   C5        1.0  0.7336500658388961  0.08145190679955085  0.12652392132922427  1.0000
  C   C6        1.0  0.26634993507464516  0.9185480932156319  0.8734760784755254  1.0000
  C   C7        1.0  0.9141371544490432  0.1158109704433625  0.17982878327182072  1.0000
  C   C8        1.0  0.0858628446006863  0.8841890295593823  0.8201712172914118  1.0000
  C   C9        1.0  0.10807444086481637  0.022036991413400847  0.19427357838651035  1.0000
  C   C10       1.0  0.8919255583330259  0.977963008601654  0.8057264214146626  1.0000
  C   C11       1.0  0.12311739344154553  0.8948085892865012  0.15540595793735737  1.0000
  C   C12       1.0  0.8768826057562968  0.1051914107285536  0.8445940418638157  1.0000
  C   C13       1.0  0.9552709246633977  0.7249937536432239  0.0589793577569143  1.0000
  C   C14       1.0  0.044729076250143676  0.275006246371959  0.9410206420478354  1.0000
  C   C15       1.0  0.5508521230808224  0.3880785956932666  0.3456409081157689  1.0000
  C   C16       1.0  0.44914787611701995  0.6119214043217882  0.6543590916854042  1.0000
  C   C17       1.0  0.6760384699684936  0.3787869762498836  0.43186120206297834  1.0000
  C   C18       1.0  0.3239615292293488  0.6212130237651712  0.5681387977381946  1.0000
  C   C19       1.0  0.6187514383175151  0.2982782766800269  0.5151726355468415  1.0000
  C   C20       1.0  0.38124856259602624  0.7017217233351559  0.4848273642579082  1.0000
  C   C21       1.0  0.43243897350852245  0.22506086747014525  0.5146498207405547  1.0000
  C   C22       1.0  0.56756102568932  0.7749391325449095  0.48535017906061834  1.0000
  C   C23       1.0  0.3059928593955575  0.23490167135573745  0.4285889735316918  1.0000
  C   C24       1.0  0.6940071415179839  0.7650983286594455  0.571411026273058  1.0000
  C   C25       1.0  0.364824975347173  0.3150323316258926  0.34570479183201125  1.0000
  C   C26       1.0  0.6351750237025567  0.6849676683768522  0.6542952087312212  1.0000
  N   N1        1.0  0.15759375768400236  0.6476964807612532  0.055799519107749544  1.0000
  N   N2        1.0  0.8424062415138399  0.3523035192538016  0.9442004806934234  1.0000
  F   F1        1.0  0.8573183172840211  0.4482788375901896  0.4358984083346375  1.0000
  F   F2        1.0  0.1426816819138213  0.5517211624248652  0.5641015914665355  1.0000
  F   F3        1.0  0.7479160747884885  0.2917227348432209  0.5962549430220647  1.0000
  F   F4        1.0  0.2520839244093537  0.7082772651718338  0.40374505677910827  1.0000
  F   F5        1.0  0.12450520090429852  0.1655548149866791  0.4239074117021954  1.0000
  F   F6        1.0  0.8754948000092427  0.834445185028504  0.5760925881025544  1.0000
  F   F7        1.0  0.2378461836730184  0.3203699681972677  0.26363593127073437  1.0000
  F   F8        1.0  0.7621538172405229  0.6796300318179151  0.7363640685340154  1.0000
  S   S1        1.0  0.7207843850008632  0.6683914914012966  0.015194845937967308  1.0000
  S   S2        1.0  0.27921561576456555  0.33160850860157626  0.9848051546288419  1.0000
  I   I1        1.0  0.6385910267903607  0.5063349045129146  0.21760200497679255  1.0000
  I   I2        1.0  0.36140897412318057  0.49366509550226817  0.7823979948279571  1.0000
  I   I3        1.0  0.34249033562528525  0.10283528101897546  0.6362287875021327  1.0000
  I   I4        1.0  0.6575096651401433  0.8971647189838975  0.3637712130646765  1.0000
