data_image0
_chemical_formula_structural       H40C48N8O16Br8
_chemical_formula_sum              "H40 C48 N8 O16 Br8"
_cell_length_a       11.552639058178741
_cell_length_b       14.293606141618572
_cell_length_c       8.496053040106373
_cell_angle_alpha    90.0
_cell_angle_beta     105.52986596393256
_cell_angle_gamma    90.0

_space_group_name_H-M_alt    "P 1"
_space_group_IT_number       1

loop_
  _space_group_symop_operation_xyz
  'x, y, z'

loop_
  _atom_site_type_symbol
  _atom_site_label
  _atom_site_symmetry_multiplicity
  _atom_site_fract_x
  _atom_site_fract_y
  _atom_site_fract_z
  _atom_site_occupancy
  H   H1        1.0  0.7307669708417059  0.13680660014174484  0.0006829436951709643  1.0000
  H   H2        1.0  0.26923302881522043  0.636806600085126  0.4993170562778354  1.0000
  H   H3        1.0  0.2692330293390599  0.8631933997450177  0.9993170564942506  1.0000
  H   H4        1.0  0.7307669713655454  0.36319339980163645  0.5006829439115864  1.0000
  H   H5        1.0  0.20556957683224847  0.11600200282363751  0.648920398046506  1.0000
  H   H6        1.0  0.7944304230055204  0.6160020027670188  0.8510796023530076  1.0000
  H   H7        1.0  0.7944304224816807  0.883997997063125  0.3510796021365923  1.0000
  H   H8        1.0  0.20556957717524554  0.38399799711974375  0.14892039783641406  1.0000
  H   H9        1.0  0.3733077927958612  0.9839196281651186  0.6621933427968225  1.0000
  H   H10       1.0  0.6266922068058524  0.4839196282217373  0.8378066563810904  1.0000
  H   H11       1.0  0.6266922071488494  0.01608037172164398  0.3378066561709985  1.0000
  H   H12       1.0  0.37330779337491343  0.5160803716650252  0.16219334380833125  1.0000
  H   H13       1.0  0.3172089826090127  0.25048953039044386  0.8212812397050591  1.0000
  H   H14       1.0  0.6827910180955926  0.750489530333825  0.678718760700778  1.0000
  H   H15       1.0  0.6827910175717531  0.7495104694963187  0.17871876048436258  1.0000
  H   H16       1.0  0.31720898208517323  0.2495104695529374  0.32128123948864373  1.0000
  H   H17       1.0  0.6013642988859823  0.2653570689174244  0.12633648496847094  1.0000
  H   H18       1.0  0.39863570077094396  0.7653570688608057  0.3736635150045354  1.0000
  H   H19       1.0  0.39863570129478354  0.7346429309693381  0.8736635152209509  1.0000
  H   H20       1.0  0.6013642985429853  0.23464293102595685  0.626336485178563  1.0000
  H   H21       1.0  0.47802069016468046  0.3332653434552091  0.007140422386175516  1.0000
  H   H22       1.0  0.5219793103590824  0.8332653433985904  0.49285957759315424  1.0000
  H   H23       1.0  0.5219793100160854  0.6667346564315534  0.9928595778032461  1.0000
  H   H24       1.0  0.47802068982168333  0.16673465648817212  0.5071404225962675  1.0000
  H   H25       1.0  0.6141842591187189  0.3208159819549034  0.9465763587181616  1.0000
  H   H26       1.0  0.3858157404829947  0.8208159818982848  0.5534236404597515  1.0000
  H   H27       1.0  0.385815741062047  0.6791840179318591  0.05342364147126017  1.0000
  H   H28       1.0  0.6141842594617158  0.17918401798847788  0.44657635850806954  1.0000
  H   H29       1.0  0.6653748215439426  0.9801251812311094  0.7241684757869397  1.0000
  H   H30       1.0  0.3346251782938262  0.480125181287728  0.7758315246125741  1.0000
  H   H31       1.0  0.33462517863682323  0.019874818655653204  0.27583152440248204  1.0000
  H   H32       1.0  0.6653748218869396  0.5198748185990344  0.2241684755768477  1.0000
  H   H33       1.0  0.5658844565047475  0.9052667396734888  0.7902969840463878  1.0000
  H   H34       1.0  0.4341155433330211  0.4052667397301075  0.7097030163531259  1.0000
  H   H35       1.0  0.4341155436760182  0.09473326021327376  0.20970301614303388  1.0000
  H   H36       1.0  0.5658844568477447  0.5947332601566551  0.2902969838362958  1.0000
  H   H37       1.0  0.6835210503873878  0.9650625379858113  0.9352592916415393  1.0000
  H   H38       1.0  0.31647894921432584  0.46506253804243014  0.5647407075363737  1.0000
  H   H39       1.0  0.31647894979337804  0.034937461900951136  0.06474070854788243  1.0000
  H   H40       1.0  0.6835210507303848  0.5349374618443324  0.43525929143144726  1.0000
  C   C1        1.0  0.017181302854310177  0.13490912586329595  0.17977764571751412  1.0000
  C   C2        1.0  0.9828186976694527  0.6349091258066772  0.32022235426181556  1.0000
  C   C3        1.0  0.9828186973264555  0.8650908740234665  0.8202223544719076  1.0000
  C   C4        1.0  0.01718130227525794  0.3650908740800853  0.6797776447060054  1.0000
  C   C5        1.0  0.9158260862211183  0.12311194547863305  0.455531037890134  1.0000
  C   C6        1.0  0.08417391430264473  0.6231119454220143  0.04446896208919565  1.0000
  C   C7        1.0  0.08417391395964768  0.8768880544081296  0.5444689622992878  1.0000
  C   C8        1.0  0.9158260858781212  0.3768880544647482  0.9555310381002261  1.0000
  C   C9        1.0  0.8382352532250636  0.1326481638863249  0.29367142020993  1.0000
  C   C10       1.0  0.16176474729869925  0.6326481638297061  0.20632857976939975  1.0000
  C   C11       1.0  0.1617647469557022  0.8673518360004376  0.7063285799794918  1.0000
  C   C12       1.0  0.8382352528820666  0.3673518360570564  0.793671420420022  1.0000
  C   C13       1.0  0.09580954696577892  0.13226126851889916  0.34381062584880223  1.0000
  C   C14       1.0  0.9041904526911474  0.6322612684622804  0.15618937412420408  1.0000
  C   C15       1.0  0.9041904532149869  0.8677387313678633  0.6561893743406195  1.0000
  C   C16       1.0  0.09580954748961842  0.3677387314244821  0.8438106260652176  1.0000
  C   C17       1.0  0.8947907356932856  0.135384800086626  0.15210597796679  1.0000
  C   C18       1.0  0.10520926483047728  0.6353848000300073  0.34789402201253966  1.0000
  C   C19       1.0  0.10520926448748022  0.8646151998001365  0.8478940222226318  1.0000
  C   C20       1.0  0.8947907353502885  0.3646151998567552  0.6521059781768821  1.0000
  C   C21       1.0  0.03862237339700751  0.12260612490904645  0.4849803071280161  1.0000
  C   C22       1.0  0.9613776271267555  0.6226061248524277  0.01501969285131364  1.0000
  C   C23       1.0  0.9613776267837583  0.8773938756773295  0.5150196930614056  1.0000
  C   C24       1.0  0.03862237305401038  0.37739387573394834  0.9849803073381079  1.0000
  C   C25       1.0  0.5018372307091762  0.19998880909952818  0.9063812699003518  1.0000
  C   C26       1.0  0.49816276912859253  0.6999888090429094  0.5936187304991618  1.0000
  C   C27       1.0  0.4981627694715896  0.8000111914868479  0.09361873028906986  1.0000
  C   C28       1.0  0.5018372301853367  0.3000111908438531  0.4063812696839364  1.0000
  C   C29       1.0  0.41161612225291533  0.04616849474245223  0.7309246818273453  1.0000
  C   C30       1.0  0.5883838784516899  0.5461684946858335  0.7690753185784918  1.0000
  C   C31       1.0  0.5883838779278505  0.9538315051443104  0.2690753183620764  1.0000
  C   C32       1.0  0.41161612172907586  0.453831505200929  0.23092468161092997  1.0000
  C   C33       1.0  0.3804549803467228  0.19384778218649332  0.8197757071573183  1.0000
  C   C34       1.0  0.6195450192549908  0.6938477821298745  0.6802242920205948  1.0000
  C   C35       1.0  0.6195450195979878  0.8061522183998827  0.18022429181050276  1.0000
  C   C36       1.0  0.38045498005893846  0.3061522184565014  0.31977570816250356  1.0000
  C   C37       1.0  0.5331892655158642  0.05088690515139911  0.8177309030732227  1.0000
  C   C38       1.0  0.4668107351887412  0.5508869050947803  0.6822690973326145  1.0000
  C   C39       1.0  0.46681073466490175  0.9491130947353634  0.18226909711619912  1.0000
  C   C40       1.0  0.5331892649920246  0.44911309479198214  0.3177309028568072  1.0000
  C   C41       1.0  0.5506287654642129  0.2850115911713997  0.002255319974461702  1.0000
  C   C42       1.0  0.44937123419271346  0.785011591114781  0.49774467999854466  1.0000
  C   C43       1.0  0.4493712347165528  0.7149884087153628  0.99774468021496  1.0000
  C   C44       1.0  0.5506287648851607  0.21498840877198158  0.5022553189629531  1.0000
  C   C45       1.0  0.6160505730578996  0.9710159110644377  0.8174462118946383  1.0000
  C   C46       1.0  0.383949426543814  0.47101591112105645  0.6825537872832746  1.0000
  C   C47       1.0  0.3839494260199745  0.028984088822324804  0.18255378706685926  1.0000
  C   C48       1.0  0.6160505736369519  0.528984088765706  0.31744621290614705  1.0000
  N   N1        1.0  0.33720234283123146  0.11747188171856703  0.732813914446213  1.0000
  N   N2        1.0  0.6627976578733737  0.6174718823615618  0.7671860859596239  1.0000
  N   N3        1.0  0.6627976573495343  0.8825281181681955  0.2671860857432086  1.0000
  N   N4        1.0  0.33720234230739204  0.38252811822481425  0.23281391422979772  1.0000
  N   N5        1.0  0.5771018935504358  0.1283183796886338  0.9033805547479574  1.0000
  N   N6        1.0  0.422898106287333  0.6283183796320151  0.5966194456515563  1.0000
  N   N7        1.0  0.42289810663033  0.8716816201981287  0.09661944544146422  1.0000
  N   N8        1.0  0.5771018938934328  0.37168162025474744  0.4033805545378654  1.0000
  O   O1        1.0  0.2069364626479893  0.13656629269476692  0.37738947858852745  1.0000
  O   O2        1.0  0.7930635370089371  0.6365662926381481  0.12261052138447885  1.0000
  O   O3        1.0  0.79306353666594  0.8634337078916091  0.6226105215945709  1.0000
  O   O4        1.0  0.20693646293577364  0.3634337072486143  0.8773894775833421  1.0000
  O   O5        1.0  0.7266841929669473  0.13726647289428  0.2600862944232509  1.0000
  O   O6        1.0  0.273315806689979  0.6372664728376612  0.23991370554975547  1.0000
  O   O7        1.0  0.27331580721381854  0.8627335269924825  0.7399137057661709  1.0000
  O   O8        1.0  0.7266841926239501  0.3627335270491013  0.7600862946333429  1.0000
  O   O9        1.0  0.8205288437980269  0.13806652012425813  0.004325897308785615  1.0000
  O   O10       1.0  0.17947115672573602  0.6380665200676394  0.49567410267054407  1.0000
  O   O11       1.0  0.17947115638273892  0.8619334797625045  0.9956741028806361  1.0000
  O   O12       1.0  0.8205288434550299  0.36193347981912316  0.5043258975188776  1.0000
  O   O13       1.0  0.10955608032810124  0.11430629218491864  0.6323418152954372  1.0000
  O   O14       1.0  0.8904439192736123  0.6143062921282999  0.8676581838824758  1.0000
  O   O15       1.0  0.8904439196166094  0.885693707701844  0.3676581836723838  1.0000
  O   O16       1.0  0.10955608090715346  0.3856937077584626  0.13234181630694591  1.0000
  Br  Br1       1.0  0.08749552926124884  0.1368467278739852  0.0036273018796529046  1.0000
  Br  Br2       1.0  0.9125044703956774  0.6368467278173664  0.4963726980933533  1.0000
  Br  Br3       1.0  0.9125044709195169  0.8631532727123908  0.9963726983097688  1.0000
  Br  Br4       1.0  0.08749552978508836  0.36315327206939607  0.5036273020960683  1.0000
  Br  Br5       1.0  0.8467261861271775  0.11281530804915549  0.6324146698744526  1.0000
  Br  Br6       1.0  0.15327381371059112  0.6128153079925368  0.867585330525061  1.0000
  Br  Br7       1.0  0.1532738140535882  0.8871846918376071  0.3675853303149691  1.0000
  Br  Br8       1.0  0.8467261864701747  0.3871846918942258  0.1324146696643606  1.0000
