data_image0
_chemical_formula_structural       H18C24N2O8Cl4
_chemical_formula_sum              "H18 C24 N2 O8 Cl4"
_cell_length_a       5.029189167577518
_cell_length_b       9.364365211795107
_cell_length_c       13.28240570835124
_cell_angle_alpha    97.8674307299184
_cell_angle_beta     98.62639707046202
_cell_angle_gamma    103.63986549259903

_space_group_name_H-M_alt    "P 1"
_space_group_IT_number       1

loop_
  _space_group_symop_operation_xyz
  'x, y, z'

loop_
  _atom_site_type_symbol
  _atom_site_label
  _atom_site_symmetry_multiplicity
  _atom_site_fract_x
  _atom_site_fract_y
  _atom_site_fract_z
  _atom_site_occupancy
  H   H1        1.0  0.853036530804955  0.34583469473048717  0.2480769678143655  1.0000
  H   H2        1.0  0.14696346875824046  0.6541653052335773  0.7519230318900207  1.0000
  H   H3        1.0  0.953513688643094  0.12469412351595191  0.2689714997397169  1.0000
  H   H4        1.0  0.04648631092010145  0.8753058764481126  0.7310284999646693  1.0000
  H   H5        1.0  0.44854324715402344  0.07802328883047852  0.05371953413167401  1.0000
  H   H6        1.0  0.5514567528027826  0.9219767113322885  0.9462804663467422  1.0000
  H   H7        1.0  0.5495636857711108  0.8426052098142798  0.11327938957709456  1.0000
  H   H8        1.0  0.4504363141856951  0.15739479034848716  0.8867206109013216  1.0000
  H   H9        1.0  0.336802757214593  0.7569720789996616  0.26066501257852  1.0000
  H   H10       1.0  0.6631972443370461  0.24302792096442946  0.7393349871259671  1.0000
  H   H11       1.0  0.8873129445459553  0.7735924173424314  0.35203468216373635  1.0000
  H   H12       1.0  0.11268705501724016  0.226407582621633  0.6479653175406498  1.0000
  H   H13       1.0  0.17230820582226805  0.9025974606280031  0.43779482792995056  1.0000
  H   H14       1.0  0.8276917941345379  0.0974025395347639  0.5622051725484657  1.0000
  H   H15       1.0  0.8706178390614063  0.9599780162297207  0.3911466405409114  1.0000
  H   H16       1.0  0.12938216249023277  0.040021983734370305  0.6088533591635757  1.0000
  H   H17       1.0  0.14690493052229128  0.19008773949775634  0.12898052978736896  1.0000
  H   H18       1.0  0.8530950690409042  0.809912260466308  0.8710194699170172  1.0000
  C   C1        1.0  0.86764503831195  0.40300228489965395  0.4019112812700687  1.0000
  C   C2        1.0  0.13235496125124552  0.5969977150644106  0.5980887184343175  1.0000
  C   C3        1.0  0.13452644269205136  0.5246084460523663  0.4122158346860066  1.0000
  C   C4        1.0  0.8654735568711441  0.47539155391169813  0.5877841650183796  1.0000
  C   C5        1.0  0.2526011459075793  0.6165196371869628  0.5130680797354369  1.0000
  C   C6        1.0  0.7473988556440598  0.3834803627771284  0.48693191996905016  1.0000
  C   C7        1.0  0.9547908911868772  0.40936580173939136  0.0792974198842526  1.0000
  C   C8        1.0  0.04520910837631833  0.5906341982246732  0.9207025798201336  1.0000
  C   C9        1.0  0.11732692593892173  0.37192391663936125  0.994318878999644  1.0000
  C   C10       1.0  0.8826730736242736  0.6280760833247032  0.00568112070474208  1.0000
  C   C11       1.0  0.8475034279083322  0.5337031552244906  0.08037292447269019  1.0000
  C   C12       1.0  0.15249657165486327  0.4662968447395739  0.9196270752316961  1.0000
  C   C13       1.0  0.13315939535519827  0.9349068244221731  0.27995038683152645  1.0000
  C   C14       1.0  0.8668406046016076  0.06509317574059383  0.7200496136468897  1.0000
  C   C15       1.0  0.0837470805334533  0.05746219426369303  0.23939353090156365  1.0000
  C   C16       1.0  0.9162529190297423  0.9425378057003715  0.7606064688028227  1.0000
  C   C17       1.0  0.3649786922252191  0.028664693128510697  0.11532702386750317  1.0000
  C   C18       1.0  0.6350213073379763  0.9713353068355539  0.8846729758368831  1.0000
  C   C19       1.0  0.4194472600196919  0.9037470211030084  0.15044613208280694  1.0000
  C   C20       1.0  0.5805527399371141  0.09625297905975856  0.8495538683956093  1.0000
  C   C21       1.0  0.3008683399482631  0.8564592698474083  0.23272743040469843  1.0000
  C   C22       1.0  0.6991316596149323  0.14354073011665622  0.7672725692996878  1.0000
  C   C23       1.0  0.008570724795040134  0.8908068536895879  0.37011780378337045  1.0000
  C   C24       1.0  0.9914292747681552  0.10919314627447657  0.6298821959210157  1.0000
  N   N1        1.0  0.19769804930532422  0.09963355063018459  0.15953374066490347  1.0000
  N   N2        1.0  0.8023019506514818  0.9003664495325825  0.8404662598135128  1.0000
  O   O1        1.0  0.2387986362015626  0.5393671202186618  0.3343322013475082  1.0000
  O   O2        1.0  0.7612013632721825  0.46063287884495524  0.665667799129819  1.0000
  O   O3        1.0  0.7604674468320431  0.317544059842008  0.31137384658877915  1.0000
  O   O4        1.0  0.23953255312476268  0.6824559403207588  0.688626153889637  1.0000
  O   O5        1.0  0.2088813983689135  0.25868639443388164  0.9962076920411499  1.0000
  O   O6        1.0  0.791118601194282  0.741313605530183  0.00379230766323629  1.0000
  O   O7        1.0  0.9287854080944588  0.3192990650880182  0.14339940663135212  1.0000
  O   O8        1.0  0.07121459146873657  0.6807009348760462  0.856600593073034  1.0000
  Cl  Cl1       1.0  0.5549351664430431  0.7541847561556037  0.5231913856161633  1.0000
  Cl  Cl2       1.0  0.4450648331201523  0.24581524380846081  0.4768086140882229  1.0000
  Cl  Cl3       1.0  0.652822509733132  0.5706863320041483  0.17275525611782436  1.0000
  Cl  Cl4       1.0  0.3471774922121177  0.42931366815864536  0.8272447443606928  1.0000
