data_image0
_chemical_formula_structural       H38C42N4O14Cl6
_chemical_formula_sum              "H38 C42 N4 O14 Cl6"
_cell_length_a       7.100654141517605
_cell_length_b       12.179029590399947
_cell_length_c       13.271880893441871
_cell_angle_alpha    71.63328964044837
_cell_angle_beta     86.76211452927704
_cell_angle_gamma    88.10773492964712

_space_group_name_H-M_alt    "P 1"
_space_group_IT_number       1

loop_
  _space_group_symop_operation_xyz
  'x, y, z'

loop_
  _atom_site_type_symbol
  _atom_site_label
  _atom_site_symmetry_multiplicity
  _atom_site_fract_x
  _atom_site_fract_y
  _atom_site_fract_z
  _atom_site_occupancy
  H   H1        1.0  0.3913653942074447  0.904703969388415  0.032304727211166576  1.0000
  H   H2        1.0  0.6086346058307869  0.0952960309344882  0.9676952722939259  1.0000
  H   H3        1.0  0.6054515766400769  0.8378390914225287  0.0032612248823305507  1.0000
  H   H4        1.0  0.39454842332035406  0.1621609086263824  0.9967387754175945  1.0000
  H   H5        1.0  0.43842833229898304  0.7581526147798114  0.10296682322952293  1.0000
  H   H6        1.0  0.561571667661448  0.2418473852690996  0.8970331770704023  1.0000
  H   H7        1.0  0.4902491978318453  0.8728990719055045  0.2321862402438401  1.0000
  H   H8        1.0  0.5097508021285857  0.1271009281434064  0.7678137600560851  1.0000
  H   H9        1.0  0.7001739509012743  0.8066982151139641  0.19740204446509999  1.0000
  H   H10       1.0  0.29982604913695743  0.19330178520893912  0.8025979550399924  1.0000
  H   H11       1.0  0.7061327684664983  0.9477666069667817  0.2090574216930767  1.0000
  H   H12       1.0  0.29386723149393285  0.05223339308212935  0.7909425786068484  1.0000
  H   H13       1.0  0.09480276487250741  0.4302207094087952  0.8231342426807121  1.0000
  H   H14       1.0  0.9051972351657243  0.569779290914108  0.1768657568243804  1.0000
  H   H15       1.0  0.9142486984710267  0.5110146125589659  0.7932918145431441  1.0000
  H   H16       1.0  0.0857513016039017  0.48898538694323296  0.2067081849595999  1.0000
  H   H17       1.0  0.5689948830207008  0.8527542026125744  0.8152423841276859  1.0000
  H   H18       1.0  0.431005116976427  0.14724579661563206  0.18475761616989084  1.0000
  H   H19       1.0  0.38344332226308536  0.800653043706147  0.6808203703646051  1.0000
  H   H20       1.0  0.6165566776973457  0.19934695634276406  0.3191796299353201  1.0000
  H   H21       1.0  0.0770878995154712  0.6984785292627591  0.7417051750711239  1.0000
  H   H22       1.0  0.9229121005227606  0.30152147106014415  0.2582948244339687  1.0000
  H   H23       1.0  0.11776045670274639  0.710922699888826  0.04849814062726966  1.0000
  H   H24       1.0  0.8822395433721821  0.28907729961337286  0.9515018588754743  1.0000
  H   H25       1.0  0.7023428238895707  0.9748561415096504  0.3915244171689238  1.0000
  H   H26       1.0  0.29765717618535775  0.025143857992548407  0.6084755823338202  1.0000
  H   H27       1.0  0.7722493606612767  0.6913409847332554  0.6582689628083622  1.0000
  H   H28       1.0  0.22775063929915432  0.30865901531565565  0.3417310374915629  1.0000
  H   H29       1.0  0.7435386946069067  0.551655262698279  0.5533887083158078  1.0000
  H   H30       1.0  0.25646130543132495  0.4483447376246242  0.4466112911892848  1.0000
  H   H31       1.0  0.6805774303003944  0.6325324414950596  0.36032980361813594  1.0000
  H   H32       1.0  0.3194225697378373  0.36746755882784377  0.6396701958869566  1.0000
  H   H33       1.0  0.9293262365076606  0.3991610252681327  0.7066106790614761  1.0000
  H   H34       1.0  0.07067376353057117  0.6008389750547706  0.29338932044361643  1.0000
  H   H35       1.0  0.9673237584742743  0.6584927571782394  0.9180408401385083  1.0000
  H   H36       1.0  0.032676241486156665  0.3415072428706714  0.08195916016141698  1.0000
  H   H37       1.0  0.7570918278450125  0.889655341068266  0.5729161471681281  1.0000
  H   H38       1.0  0.24290817211541843  0.11034465898064501  0.4270838531317971  1.0000
  C   C1        1.0  0.6486246868813348  0.5470683893366559  0.9197582237008414  1.0000
  C   C2        1.0  0.3513753130790962  0.45293161071225513  0.08024177659908388  1.0000
  C   C3        1.0  0.6536604755459181  0.5556391170565408  0.032960863253962316  1.0000
  C   C4        1.0  0.3463395244923136  0.4443608832663625  0.9670391362511302  1.0000
  C   C5        1.0  0.5021772424978499  0.509222017437508  0.10598481541993829  1.0000
  C   C6        1.0  0.49782275754038186  0.49077798288539537  0.8940151840851542  1.0000
  C   C7        1.0  0.8702301595131993  0.06350470036591907  0.7592903273459488  1.0000
  C   C8        1.0  0.1297698404472316  0.9364952996829919  0.24070967295397636  1.0000
  C   C9        1.0  0.8928310903987473  0.18145298274250107  0.7517975923560188  1.0000
  C   C10       1.0  0.10716890959838038  0.8185470164857055  0.24820240794155776  1.0000
  C   C11       1.0  0.8531873165125016  0.2731016205895067  0.6467595512605866  1.0000
  C   C12       1.0  0.14681268352573018  0.7268983797333965  0.353240448244506  1.0000
  C   C13       1.0  0.8008632121490545  0.24273778876228522  0.560960467221365  1.0000
  C   C14       1.0  0.19913678781137648  0.7572622112866257  0.4390395330785602  1.0000
  C   C15       1.0  0.7818316350004151  0.12351946259090733  0.5674760073957875  1.0000
  C   C16       1.0  0.21816836503781661  0.876480537731996  0.432523992109305  1.0000
  C   C17       1.0  0.8189017550212667  0.028472455711524427  0.6738438078100285  1.0000
  C   C18       1.0  0.18109824493916427  0.9715275443373865  0.3261561924898965  1.0000
  C   C19       1.0  0.358092248191109  0.7884997552033319  0.943003632212201  1.0000
  C   C20       1.0  0.6419077518471227  0.21150024511957138  0.05699636729289147  1.0000
  C   C21       1.0  0.4319272575717164  0.811635460136325  0.8382451968906988  1.0000
  C   C22       1.0  0.5680727423887146  0.18836453991258612  0.16175480340922632  1.0000
  C   C23       1.0  0.3323408086980176  0.7816566159063759  0.7632925891597161  1.0000
  C   C24       1.0  0.6676591912624136  0.21834338414253518  0.23670741114020905  1.0000
  C   C25       1.0  0.16189425509507935  0.7259961438319129  0.7944837946203432  1.0000
  C   C26       1.0  0.8381057449431524  0.2740038564909904  0.20551620488474923  1.0000
  C   C27       1.0  0.18652759575806424  0.7314476910933241  0.969529072955137  1.0000
  C   C28       1.0  0.8134724042801675  0.26855230922957907  0.03047092654995547  1.0000
  C   C29       1.0  0.4550388365990585  0.8238825187521593  0.024796054924242444  1.0000
  C   C30       1.0  0.5449611633613726  0.17611748129675153  0.9752039453756827  1.0000
  C   C31       1.0  0.6808700153726223  0.810505164497692  0.35823253705513414  1.0000
  C   C32       1.0  0.3191299845878088  0.18949483555121904  0.6417674632447911  1.0000
  C   C33       1.0  0.7056375115712396  0.8808841719468797  0.4211729205791374  1.0000
  C   C34       1.0  0.29436248838919143  0.1191158281020312  0.5788270797207877  1.0000
  C   C35       1.0  0.7492244351197709  0.7196032486639785  0.5734936979289976  1.0000
  C   C36       1.0  0.2507755648406602  0.28039675138493264  0.4265063023709274  1.0000
  C   C37       1.0  0.7290882636732398  0.6445588852889533  0.5152170768799927  1.0000
  C   C38       1.0  0.2709117362871913  0.35544111475995777  0.48478292341993234  1.0000
  C   C39       1.0  0.694546200708267  0.6904791223282148  0.4075122894104991  1.0000
  C   C40       1.0  0.30545379925216404  0.3095208777206963  0.592487710889426  1.0000
  C   C41       1.0  0.6428300277085687  0.8622366929464941  0.24290241463699938  1.0000
  C   C42       1.0  0.3571699722885592  0.1377633062817124  0.7570975856605772  1.0000
  N   N1        1.0  0.09620441593859967  0.7013285688029556  0.896138340028796  1.0000
  N   N2        1.0  0.9037955840585282  0.29867143042525085  0.1038616602687807  1.0000
  N   N3        1.0  0.7380007186329889  0.8346028669715957  0.5250565487389507  1.0000
  N   N4        1.0  0.2619992813274421  0.16539713307731524  0.4749434515609745  1.0000
  O   O1        1.0  0.7957980082166549  0.6036177735153143  0.052321018906906484  1.0000
  O   O2        1.0  0.20420199182157678  0.396382226807589  0.947678980598186  1.0000
  O   O3        1.0  0.786176456078325  0.5914798459434341  0.8565941431357625  1.0000
  O   O4        1.0  0.21382354395990652  0.4085201543794693  0.14340585636932987  1.0000
  O   O5        1.0  0.7979959204064669  0.9244835421677892  0.677003046462102  1.0000
  O   O6        1.0  0.2020040796317647  0.07551645815511414  0.3229969530429905  1.0000
  O   O7        1.0  0.7355586708934523  0.09203437913848499  0.4920990938606702  1.0000
  O   O8        1.0  0.26444132906697865  0.9079656209104261  0.5079009064392549  1.0000
  O   O9        1.0  0.8710580283761454  0.3812920133451622  0.6409121012121468  1.0000
  O   O10       1.0  0.1289419716620863  0.6187079869777413  0.3590878982929457  1.0000
  O   O11       1.0  0.943263899201401  0.2163977243897095  0.8249059262381282  1.0000
  O   O12       1.0  0.05673610083683089  0.7836022759331938  0.17509407326696433  1.0000
  O   O13       1.0  0.011984069207726732  0.46771324813359505  0.7636941891142655  1.0000
  O   O14       1.0  0.9880159307527043  0.5322867519153162  0.2363058111856597  1.0000
  Cl  Cl1       1.0  0.5015699510659302  0.5206827785548406  0.23291622156639447  1.0000
  Cl  Cl2       1.0  0.49843004897230153  0.4793172217680628  0.767083777938698  1.0000
  Cl  Cl3       1.0  0.7630274685045014  0.3483033441202534  0.4417841599019642  1.0000
  Cl  Cl4       1.0  0.23697253153373035  0.6516966562026499  0.5582158396031283  1.0000
  Cl  Cl5       1.0  0.9114308960347869  0.9612997623584506  0.8805127804934814  1.0000
  Cl  Cl6       1.0  0.0885691039256442  0.03870023769046059  0.11948721980644372  1.0000
