data_image0
_chemical_formula_structural       H80C68N4O12
_chemical_formula_sum              "H80 C68 N4 O12"
_cell_length_a       7.551506484545772
_cell_length_b       10.679739137038448
_cell_length_c       19.006301576172756
_cell_angle_alpha    83.87988906714604
_cell_angle_beta     78.39294318272735
_cell_angle_gamma    74.18328092163091

_space_group_name_H-M_alt    "P 1"
_space_group_IT_number       1

loop_
  _space_group_symop_operation_xyz
  'x, y, z'

loop_
  _atom_site_type_symbol
  _atom_site_label
  _atom_site_symmetry_multiplicity
  _atom_site_fract_x
  _atom_site_fract_y
  _atom_site_fract_z
  _atom_site_occupancy
  H   H1        1.0  0.4953700351675427  0.3395444343411093  0.7305061621673716  1.0000
  H   H2        1.0  0.5046299646473179  0.6604555657454595  0.26949383778626523  1.0000
  H   H3        1.0  0.537241086539218  0.30734464603769973  0.857934658454767  1.0000
  H   H4        1.0  0.4627589132756426  0.6926553540488691  0.14206534149886996  1.0000
  H   H5        1.0  0.7914698036837767  0.8979329170016717  0.8281367451830607  1.0000
  H   H6        1.0  0.20853019613108367  0.10206708308489722  0.17186325477057623  1.0000
  H   H7        1.0  0.7505022126410527  0.9331806011839818  0.7006571942727869  1.0000
  H   H8        1.0  0.24949778852225615  0.0668193989062748  0.29934280609977726  1.0000
  H   H9        1.0  0.9090129876704063  0.9324780705545143  0.9275236967686007  1.0000
  H   H10       1.0  0.09098701214445427  0.06752192953205473  0.07247630318503616  1.0000
  H   H11       1.0  0.6861954696790056  0.8987716014551486  0.9501624808586244  1.0000
  H   H12       1.0  0.3138045301334972  0.10122839863221557  0.04983751962129395  1.0000
  H   H13       1.0  0.6061311802310344  0.02843578072229378  0.058800917300534106  1.0000
  H   H14       1.0  0.393868819583826  0.9715642193642751  0.9411990826531028  1.0000
  H   H15       1.0  0.8217370537608979  0.07029531035708404  0.036456919972649646  1.0000
  H   H16       1.0  0.17826294605396267  0.9297046897294847  0.9635430799809872  1.0000
  H   H17       1.0  0.7741849940806084  0.7923376746594988  0.07302423977458566  1.0000
  H   H18       1.0  0.22581500573425212  0.20766232542706997  0.9269757601790513  1.0000
  H   H19       1.0  0.9909069085839326  0.8331809081702797  0.050796013567649595  1.0000
  H   H20       1.0  0.009093092581734184  0.16681909191918168  0.9492039862786332  1.0000
  H   H21       1.0  0.6836361548027773  0.9313830020867254  0.18084296750107054  1.0000
  H   H22       1.0  0.3163638467276399  0.06861699702806925  0.8191570323748748  1.0000
  H   H23       1.0  0.9046328303393614  0.968302512309554  0.15934190544247434  1.0000
  H   H24       1.0  0.09536716984024934  0.031697486802348344  0.8406580945408251  1.0000
  H   H25       1.0  0.8909139974539763  0.806562791739095  0.18511648582747625  1.0000
  H   H26       1.0  0.10908600236088414  0.19343720834747388  0.8148835141261607  1.0000
  H   H27       1.0  0.49411561904913226  0.2872239225115664  0.5556187008026721  1.0000
  H   H28       1.0  0.5058843807657282  0.7127760775750025  0.44438129915096475  1.0000
  H   H29       1.0  0.17138962283706768  0.4093924902852281  0.7581792562441892  1.0000
  H   H30       1.0  0.8286103769777928  0.5906075098013409  0.24182074370944756  1.0000
  H   H31       1.0  0.13577440027313067  0.43784103652663187  0.6295904516169933  1.0000
  H   H32       1.0  0.86422559954173  0.5621589635599369  0.3704095483366437  1.0000
  H   H33       1.0  0.07222772191762541  0.8505027658001245  0.6346843771723507  1.0000
  H   H34       1.0  0.9277722778972349  0.1494972342864445  0.3653156227812862  1.0000
  H   H35       1.0  0.10400457387050847  0.8209689489415569  0.7630530601302989  1.0000
  H   H36       1.0  0.8959954259443519  0.179031051145012  0.23694693982333806  1.0000
  H   H37       1.0  0.13862286920014485  0.8287055923769608  0.5128401200391602  1.0000
  H   H38       1.0  0.8613771306147157  0.17129440770960805  0.4871598799144767  1.0000
  H   H39       1.0  0.8990989701399895  0.8374088962941376  0.5513525433452452  1.0000
  H   H40       1.0  0.10090102967251341  0.1625911037932264  0.4486474571346731  1.0000
  H   H41       1.0  0.8909391606077754  0.6969797199650268  0.45347062199688504  1.0000
  H   H42       1.0  0.10906083920472706  0.3030202801223373  0.5465293784830333  1.0000
  H   H43       1.0  0.12027122606994957  0.7056116239860745  0.4129127639755687  1.0000
  H   H44       1.0  0.8797287737425532  0.2943883761012896  0.5870872365043496  1.0000
  H   H45       1.0  0.7752438706051583  0.9379585926500577  0.43955231105054293  1.0000
  H   H46       1.0  0.22475612920970217  0.062041407436511285  0.560447688903094  1.0000
  H   H47       1.0  0.004485320763259078  0.9511374402040482  0.4035581699157979  1.0000
  H   H48       1.0  0.9955146790516015  0.048862559882520515  0.596441830037839  1.0000
  H   H49       1.0  0.014051162271029745  0.8257499017862578  0.29768604698855217  1.0000
  H   H50       1.0  0.985948837543831  0.17425009830031088  0.7023139529650848  1.0000
  H   H51       1.0  0.8200245669252793  0.964173373747461  0.3049236169849304  1.0000
  H   H52       1.0  0.17997543288958137  0.03582662633910789  0.6950763829687064  1.0000
  H   H53       1.0  0.7853935700694409  0.8079596737572414  0.33391747184459575  1.0000
  H   H54       1.0  0.21460642974541974  0.19204032632932738  0.6660825281090412  1.0000
  H   H55       1.0  0.24870055331244714  0.46855722605514893  0.9235249038532074  1.0000
  H   H56       1.0  0.7512994465024132  0.5314427740314199  0.07647509610042962  1.0000
  H   H57       1.0  0.5366324111183656  0.10621764174538917  0.4758891439586795  1.0000
  H   H58       1.0  0.463367588696495  0.8937823583411796  0.5241108559949573  1.0000
  H   H59       1.0  0.4875544303343006  0.10656049898804644  0.3501810261928214  1.0000
  H   H60       1.0  0.5124455694805599  0.8934395010985224  0.6498189737608154  1.0000
  H   H61       1.0  0.32372529318508125  0.5280624615249984  0.34860150723681615  1.0000
  H   H62       1.0  0.6762747066297793  0.47193753856157045  0.6513984927168209  1.0000
  H   H63       1.0  0.36876393291401266  0.5081432764996286  0.4746527794213278  1.0000
  H   H64       1.0  0.6312360669008479  0.49185672358694027  0.5253472205323092  1.0000
  H   H65       1.0  0.08316843869241027  0.6229731942101474  0.016269990123632685  1.0000
  H   H66       1.0  0.9168315624732567  0.37702680587931386  0.9837300097226501  1.0000
  H   H67       1.0  0.11335432091693626  0.6275765999558653  0.14482400948062568  1.0000
  H   H68       1.0  0.8866456788955664  0.3724234001314988  0.8551759909992925  1.0000
  H   H69       1.0  0.5489058687250723  0.2684109368701065  0.11466627119032322  1.0000
  H   H70       1.0  0.4510941310874304  0.7315890632172576  0.8853337292895952  1.0000
  H   H71       1.0  0.49302091390082814  0.27611405181882853  0.9899729125501853  1.0000
  H   H72       1.0  0.5069790862764247  0.7238859472938691  0.010027087959395574  1.0000
  H   H73       1.0  0.2394783002923249  0.2911558818237938  0.26334509275582  1.0000
  H   H74       1.0  0.7605216995225356  0.7088441182627749  0.7366549071978169  1.0000
  H   H75       1.0  0.4826646189529028  0.24227411674987398  0.2333999581728311  1.0000
  H   H76       1.0  0.5173353808619576  0.757725883336695  0.7666000417808058  1.0000
  H   H77       1.0  0.24318042417392738  0.5260030429638236  0.2448228897545851  1.0000
  H   H78       1.0  0.7568195769917396  0.4739969571256374  0.7551771100916976  1.0000
  H   H79       1.0  0.48799552376695443  0.47973993306548623  0.21643726015292758  1.0000
  H   H80       1.0  0.512004476047906  0.5202600670210826  0.7835627398007093  1.0000
  C   C1        1.0  0.620168113752568  0.13815234786241926  0.706885997645346  1.0000
  C   C2        1.0  0.37983188606229273  0.8618476522241495  0.2931140023082908  1.0000
  C   C3        1.0  0.5616270849892654  0.2435109333127497  0.7519325420947311  1.0000
  C   C4        1.0  0.4383729148255952  0.7564890667738191  0.24806745785890585  1.0000
  C   C5        1.0  0.5850911724656908  0.22590908457201295  0.8230129470560874  1.0000
  C   C6        1.0  0.414908827346812  0.7740909155153511  0.1769870534238308  1.0000
  C   C7        1.0  0.6671725229490468  0.10137654154075576  0.8512617870640339  1.0000
  C   C8        1.0  0.3328274768658136  0.898623458545813  0.148738212889603  1.0000
  C   C9        1.0  0.7265086152158563  0.9948287783662231  0.8071635702057619  1.0000
  C   C10       1.0  0.27349138459900396  0.005171221720345771  0.19283642974787504  1.0000
  C   C11       1.0  0.7027472747939167  0.01467171148384033  0.7356073234063225  1.0000
  C   C12       1.0  0.2972527263717501  0.9853282886056209  0.2643926764399603  1.0000
  C   C13       1.0  0.5953002377663652  0.15600329517573916  0.6305119146142041  1.0000
  C   C14       1.0  0.4046997620484952  0.8439967049108299  0.36948808533943284  1.0000
  C   C15       1.0  0.764013269001122  0.9699118457584102  0.9553662685792406  1.0000
  C   C16       1.0  0.23598673216454513  0.030088154331050953  0.04463373126704235  1.0000
  C   C17       1.0  0.7537613388598972  0.992344322421609  0.03361347458518088  1.0000
  C   C18       1.0  0.2462386613197136  0.007655676690293188  0.9663865253981186  1.0000
  C   C19       1.0  0.8431688679451301  0.8697492315430667  0.07595482682789727  1.0000
  C   C20       1.0  0.15683113358528689  0.13025076757172815  0.9240451730480481  1.0000
  C   C21       1.0  0.8299697646581681  0.8953873927306846  0.1544486849266373  1.0000
  C   C22       1.0  0.17003023515669233  0.10461260735588442  0.8455513150269998  1.0000
  C   C23       1.0  0.137989975929822  0.6140748007289252  0.7694865664379064  1.0000
  C   C24       1.0  0.8620100238850384  0.3859251993576437  0.23051343351573053  1.0000
  C   C25       1.0  0.14840564971957076  0.505885088896243  0.7310049083811104  1.0000
  C   C26       1.0  0.8515943514460962  0.49411491119321815  0.2689950914651723  1.0000
  C   C27       1.0  0.12874526134725608  0.5210152082294175  0.6594835818888244  1.0000
  C   C28       1.0  0.8712547384676045  0.47898479185715126  0.34051641806481253  1.0000
  C   C29       1.0  0.09968134111254497  0.645551795573384  0.6241497247314524  1.0000
  C   C30       1.0  0.9003186587023154  0.3544482045131849  0.37585027522218456  1.0000
  C   C31       1.0  0.09125961326659418  0.7541264097887621  0.6616116667502923  1.0000
  C   C32       1.0  0.9087403865482664  0.24587359029780673  0.33838833320334455  1.0000
  C   C33       1.0  0.10982282693943439  0.7374002532711595  0.7336110522781798  1.0000
  C   C34       1.0  0.8901771728754261  0.26259974681540926  0.2663889476754572  1.0000
  C   C35       1.0  0.15803216391552177  0.6003370498590217  0.8463109203863071  1.0000
  C   C36       1.0  0.8419678358993388  0.3996629502275471  0.15368907956732983  1.0000
  C   C37       1.0  0.02612800295161774  0.7788120116425926  0.5185970813190006  1.0000
  C   C38       1.0  0.9738719968632429  0.2211879884439762  0.4814029186346363  1.0000
  C   C39       1.0  0.9892689275742935  0.7586988629765479  0.4457697730441683  1.0000
  C   C40       1.0  0.01073107224056695  0.24130113711002088  0.5542302269094685  1.0000
  C   C41       1.0  0.9089378533481913  0.8881519049290036  0.40691056252901725  1.0000
  C   C42       1.0  0.09106214646666912  0.11184809515756516  0.5930894374246197  1.0000
  C   C43       1.0  0.8803973470403269  0.8705502681003946  0.3318362071881996  1.0000
  C   C44       1.0  0.11960265277453357  0.12944973198617418  0.6681637927654372  1.0000
  C   C45       1.0  0.4882155552277837  0.19680466399642246  0.4449362479466513  1.0000
  C   C46       1.0  0.5117844445870768  0.8031953360901463  0.5550637520069855  1.0000
  C   C47       1.0  0.4620397866509171  0.19884920290571872  0.374630876110983  1.0000
  C   C48       1.0  0.5379602131639434  0.8011507971808502  0.6253691238426539  1.0000
  C   C49       1.0  0.4014361635215262  0.3182985212511057  0.33705404081901397  1.0000
  C   C50       1.0  0.5985638366580845  0.6817014778607967  0.6629459591642856  1.0000
  C   C51       1.0  0.36957413491219326  0.43135723046724733  0.37384168403081086  1.0000
  C   C52       1.0  0.6304258662534739  0.5686427696222137  0.6261583158154721  1.0000
  C   C53       1.0  0.39733604298154995  0.42134016054758777  0.44459754607812046  1.0000
  C   C54       1.0  0.6026639568333105  0.5786598395389811  0.5554024538755165  1.0000
  C   C55       1.0  0.18177167990886514  0.5458531397118578  0.041539815751660804  1.0000
  C   C56       1.0  0.8182283199059953  0.45414686037471114  0.9584601842019761  1.0000
  C   C57       1.0  0.20131234081202787  0.547741436186181  0.11249539865361634  1.0000
  C   C58       1.0  0.798687659000475  0.45225856390118296  0.8875046018263019  1.0000
  C   C59       1.0  0.33244908648148547  0.4470871730326654  0.1418146533635812  1.0000
  C   C60       1.0  0.6675509136981252  0.552912826079237  0.8581853466197182  1.0000
  C   C61       1.0  0.43965923326018896  0.3476150148708951  0.09656816601401749  1.0000
  C   C62       1.0  0.5603407665546715  0.6523849852156738  0.9034318339396195  1.0000
  C   C63       1.0  0.41093387819106286  0.35204623923641076  0.026283258803612753  1.0000
  C   C64       1.0  0.589066121988548  0.6479537598754916  0.9737167411796868  1.0000
  C   C65       1.0  0.3703879287980362  0.319653169685927  0.26114226202437446  1.0000
  C   C66       1.0  0.6296120723676307  0.6803468304035342  0.7388577378219083  1.0000
  C   C67       1.0  0.3586925473518371  0.44976120517060436  0.21794791935662522  1.0000
  C   C68       1.0  0.6413074524630235  0.5502387949159645  0.7820520805970117  1.0000
  N   N1        1.0  0.4567907179879167  0.3062249891764912  0.4796911070503846  1.0000
  N   N2        1.0  0.5432092818269437  0.6937750109100776  0.5203088929032522  1.0000
  N   N3        1.0  0.2840191607897118  0.44941819615933304  0.9991487317282969  1.0000
  N   N4        1.0  0.7159808390251486  0.5505818039272358  0.0008512682253399812  1.0000
  O   O1        1.0  0.5156250781374647  0.2782821653272525  0.6105240122695017  1.0000
  O   O2        1.0  0.4843749216773957  0.7217178347593163  0.38947598768413516  1.0000
  O   O3        1.0  0.6445853325812508  0.06454611920856486  0.5896492534897834  1.0000
  O   O4        1.0  0.3554146672336096  0.9354538808780041  0.41035074646385367  1.0000
  O   O5        1.0  0.6810163845798047  0.0943033216562438  0.921917467225534  1.0000
  O   O6        1.0  0.31898361523505564  0.9056966784303252  0.07808253272810278  1.0000
  O   O7        1.0  0.22703643052272468  0.47741735516469613  0.8687430998097624  1.0000
  O   O8        1.0  0.7729635692897779  0.5225826449226679  0.131256900670156  1.0000
  O   O9        1.0  0.11690271084630721  0.6948354572828117  0.8846259551837993  1.0000
  O   O10       1.0  0.8830972893333034  0.30516454182909064  0.11537404479950024  1.0000
  O   O11       1.0  0.08116601214197938  0.6514999347924287  0.5543708167367217  1.0000
  O   O12       1.0  0.918833987672881  0.3485000652941402  0.4456291832169152  1.0000
