data_image0
_chemical_formula_structural       H32C40N12O16
_chemical_formula_sum              "H32 C40 N12 O16"
_cell_length_a       4.7553560942662285
_cell_length_b       10.710156443826548
_cell_length_c       19.418963746077377
_cell_angle_alpha    90.0
_cell_angle_beta     92.45767298338694
_cell_angle_gamma    90.0

_space_group_name_H-M_alt    "P 1"
_space_group_IT_number       1

loop_
  _space_group_symop_operation_xyz
  'x, y, z'

loop_
  _atom_site_type_symbol
  _atom_site_label
  _atom_site_symmetry_multiplicity
  _atom_site_fract_x
  _atom_site_fract_y
  _atom_site_fract_z
  _atom_site_occupancy
  H   H1        1.0  0.836137181640258  0.4095248041430974  0.5971666046742841  1.0000
  H   H2        1.0  0.16386281846608008  0.9095248039644562  0.9028333949737088  1.0000
  H   H3        1.0  0.1638628184446688  0.5904751964333135  0.4028333950480202  1.0000
  H   H4        1.0  0.8361371816188466  0.09047519567826147  0.09716660474859552  1.0000
  H   H5        1.0  0.19199597676235294  0.5476725256782807  0.5419909687360707  1.0000
  H   H6        1.0  0.808004023380251  0.04767252585692191  0.9580090314271873  1.0000
  H   H7        1.0  0.8080040233588397  0.45232747396443695  0.45800903150149863  1.0000
  H   H8        1.0  0.19199597674094165  0.9523274737857959  0.04199096881038202  1.0000
  H   H9        1.0  0.035075676314448724  0.8359953850310914  0.6891810943212678  1.0000
  H   H10       1.0  0.9649243238281553  0.3359953852097325  0.81081890584199  1.0000
  H   H11       1.0  0.9649243238067439  0.16400461461162638  0.3108189059163014  1.0000
  H   H12       1.0  0.03507567629303743  0.6640046144329853  0.18918109439557923  1.0000
  H   H13       1.0  0.680035849940665  0.7005084369542104  0.7440523705066577  1.0000
  H   H14       1.0  0.31996415020193897  0.20050843713285152  0.7559476296566001  1.0000
  H   H15       1.0  0.31996415018052765  0.29949156268850735  0.25594762973091145  1.0000
  H   H16       1.0  0.6800358499192537  0.7994915634435594  0.24405237058096912  1.0000
  H   H17       1.0  0.6700417386144667  0.8174387821427593  0.4940755391174113  1.0000
  H   H18       1.0  0.329958259380799  0.31743878232140044  0.0059244611812427645  1.0000
  H   H19       1.0  0.3299582594022103  0.18256121749995843  0.5059244611069315  1.0000
  H   H20       1.0  0.6700417386358781  0.6825612182550105  0.9940755390431  1.0000
  H   H21       1.0  0.7712363399078968  0.7259475732944687  0.37896774637000136  1.0000
  H   H22       1.0  0.22876366015561864  0.22594757253941666  0.12103225342661433  1.0000
  H   H23       1.0  0.22876366017702993  0.27405242728194223  0.6210322533523029  1.0000
  H   H24       1.0  0.7712363399293082  0.7740524271033011  0.8789677462956902  1.0000
  H   H25       1.0  0.21159784328665282  0.8611048903320164  0.3244552703977556  1.0000
  H   H26       1.0  0.7884021568131285  0.36110489051065764  0.175544729914125  1.0000
  H   H27       1.0  0.7884021568345398  0.13889511024439444  0.6755447298398136  1.0000
  H   H28       1.0  0.2115978433080641  0.6388951100657534  0.8244552703234442  1.0000
  H   H29       1.0  0.337509671962105  0.034365818270764445  0.4102952064993441  1.0000
  H   H30       1.0  0.6624903281014104  0.5343658180921232  0.0897047932972716  1.0000
  H   H31       1.0  0.6624903281590876  0.9656341813719533  0.5897047937382253  1.0000
  H   H32       1.0  0.3375096719835164  0.46563418155059444  0.9102952064250328  1.0000
  C   C1        1.0  0.35373795256441515  0.780009243918687  0.5803597793652169  1.0000
  C   C2        1.0  0.646262047541923  0.28000924409732814  0.919640220282776  1.0000
  C   C3        1.0  0.6462620475205116  0.2199907557240307  0.4196402203570874  1.0000
  C   C4        1.0  0.35373795254300383  0.7199907555453896  0.08035977943952825  1.0000
  C   C5        1.0  0.7490249921280807  0.5474253910996327  0.6741367242906876  1.0000
  C   C6        1.0  0.2509750080145233  0.047425391278273846  0.8258632758725704  1.0000
  C   C7        1.0  0.25097500799311206  0.45257460854308507  0.32586327594688164  1.0000
  C   C8        1.0  0.7490249921066693  0.9525746092981371  0.17413672436499897  1.0000
  C   C9        1.0  0.8854250460867346  0.5024335963926791  0.6168532974489799  1.0000
  C   C10       1.0  0.11457495405586937  0.002433596571320271  0.8831467027142781  1.0000
  C   C11       1.0  0.11457495399819222  0.49756640418373177  0.3831467022733245  1.0000
  C   C12       1.0  0.8854250460653234  0.9975664040050908  0.11685329752329121  1.0000
  C   C13       1.0  0.07944430831663948  0.5793877561496146  0.5864122809147772  1.0000
  C   C14       1.0  0.9205556918259644  0.07938775632825573  0.9135877192484807  1.0000
  C   C15       1.0  0.9205556918045532  0.4206122434931031  0.4135877193227921  1.0000
  C   C16       1.0  0.0794443082952282  0.9206122433144621  0.08641228098908856  1.0000
  C   C17       1.0  0.13644409567455573  0.699176617006032  0.6129000816287017  1.0000
  C   C18       1.0  0.8635559044680481  0.19917661625097988  0.887099918534556  1.0000
  C   C19       1.0  0.8635559044466369  0.30082338357037897  0.38709991860886755  1.0000
  C   C20       1.0  0.13644409565314444  0.8008233833917378  0.11290008170301309  1.0000
  C   C21       1.0  0.9925169634968164  0.7424081535786735  0.6696900304228938  1.0000
  C   C22       1.0  0.007483036609521757  0.24240815282362144  0.8303099692250993  1.0000
  C   C23       1.0  0.007483036588110445  0.2575918469977374  0.3303099692994106  1.0000
  C   C24       1.0  0.9925169634754052  0.7575918468190962  0.1696900304972051  1.0000
  C   C25       1.0  0.7958304124327779  0.6670723492669558  0.7005899691788071  1.0000
  C   C26       1.0  0.20416958770982613  0.16707234944559685  0.7994100309844508  1.0000
  C   C27       1.0  0.2041695876884148  0.33292765130945523  0.2994100310587622  1.0000
  C   C28       1.0  0.7958304124113665  0.8329276511308141  0.20058996925311845  1.0000
  C   C29       1.0  0.0010325972819954688  0.9581570861100853  0.47121278677889283  1.0000
  C   C30       1.0  0.99896740278152  0.4581570862887265  0.028787213017722843  1.0000
  C   C31       1.0  0.9989674028029312  0.0418429135326324  0.5287872129434115  1.0000
  C   C32       1.0  0.0010325973034067694  0.5418429133539913  0.9712127867045814  1.0000
  C   C33       1.0  0.8887666626401426  0.8053776287247382  0.39915289848937896  1.0000
  C   C34       1.0  0.11123333742337274  0.3053776289033793  0.10084710130723674  1.0000
  C   C35       1.0  0.11123333744478404  0.1946223709179796  0.6008471012329254  1.0000
  C   C36       1.0  0.8887666626978198  0.6946223707393385  0.8991528989303326  1.0000
  C   C37       1.0  0.10354630239030387  0.8724365530053433  0.3718627597077238  1.0000
  C   C38       1.0  0.8964536976732115  0.37243655225029126  0.12813724008889188  1.0000
  C   C39       1.0  0.8964536976946229  0.12756344757106763  0.6281372400145806  1.0000
  C   C40       1.0  0.10354630241171515  0.6275634473924265  0.8718627596334124  1.0000
  N   N1        1.0  0.5500225152394798  0.46576143832850875  0.7075544174844843  1.0000
  N   N2        1.0  0.44997748490312417  0.9657614381498677  0.7924455826787736  1.0000
  N   N3        1.0  0.4499774848454471  0.534238561314209  0.29244558223782  1.0000
  N   N4        1.0  0.5500225152180684  0.034238561492850095  0.20755441755879564  1.0000
  N   N5        1.0  0.8288534016577797  0.8593568215621349  0.4608267241245809  1.0000
  N   N6        1.0  0.17114659844200164  0.359356821740776  0.0391732761872997  1.0000
  N   N7        1.0  0.17114659846341296  0.14064317808058294  0.5391732761129884  1.0000
  N   N8        1.0  0.828853401679191  0.6406431779019418  0.9608267240502696  1.0000
  N   N9        1.0  0.17112859440710657  0.9667320925053409  0.41745507384248387  1.0000
  N   N10       1.0  0.8288714056564089  0.466732092683982  0.08254492595413183  1.0000
  N   N11       1.0  0.8288714056778202  0.03326790713737686  0.5825449258798204  1.0000
  N   N12       1.0  0.17112859442851788  0.5332679078924288  0.9174550737681725  1.0000
  O   O1        1.0  0.41450834885864446  0.8832021893996147  0.609496210154316  1.0000
  O   O2        1.0  0.5854916512839595  0.38320218957825586  0.890503790008942  1.0000
  O   O3        1.0  0.5854916512625482  0.116797810243103  0.3905037900832533  1.0000
  O   O4        1.0  0.4145083488009673  0.6167978100644619  0.10949620971336242  1.0000
  O   O5        1.0  0.46027030076413233  0.7381656814692963  0.5257664376738973  1.0000
  O   O6        1.0  0.5397296993784716  0.23816568164793747  0.9742335624893607  1.0000
  O   O7        1.0  0.5397296993570603  0.2618343181734214  0.47423356256367194  1.0000
  O   O8        1.0  0.4602703007064552  0.7618343179947803  0.02576643723294376  1.0000
  O   O9        1.0  0.392567921558101  0.5112226108663434  0.7501088996836447  1.0000
  O   O10       1.0  0.6074320785845029  0.011222611044984523  0.7498911004796132  1.0000
  O   O11       1.0  0.6074320785268257  0.48877738877637433  0.24989110003865964  1.0000
  O   O12       1.0  0.39256792153668973  0.9887773885977332  0.2501088997579561  1.0000
  O   O13       1.0  0.5485373193683393  0.35293438054108195  0.6913561464518209  1.0000
  O   O14       1.0  0.45146268077426466  0.8529343803624407  0.808643853711437  1.0000
  O   O15       1.0  0.45146268075285345  0.6470656191016358  0.3086438537857484  1.0000
  O   O16       1.0  0.548537319346928  0.14706561928027695  0.19135614652613223  1.0000
