data_image0
_chemical_formula_structural       H60C70N8O26
_chemical_formula_sum              "H60 C70 N8 O26"
_cell_length_a       8.610579507088842
_cell_length_b       10.69119382353309
_cell_length_c       17.25084984713395
_cell_angle_alpha    80.14227064470786
_cell_angle_beta     84.33464541768569
_cell_angle_gamma    85.55703527786983

_space_group_name_H-M_alt    "P 1"
_space_group_IT_number       1

loop_
  _space_group_symop_operation_xyz
  'x, y, z'

loop_
  _atom_site_type_symbol
  _atom_site_label
  _atom_site_symmetry_multiplicity
  _atom_site_fract_x
  _atom_site_fract_y
  _atom_site_fract_z
  _atom_site_occupancy
  H   H1        1.0  0.8583422935694712  0.6279119815019667  0.12981608583029255  1.0000
  H   H2        1.0  0.14165770607439743  0.3720880185906608  0.8701839138315179  1.0000
  H   H3        1.0  0.9627599774566249  0.752240745657563  0.002217107499054701  1.0000
  H   H4        1.0  0.03724002218724379  0.24775925443506455  0.9977828921627557  1.0000
  H   H5        1.0  0.1311052474600059  0.928962866638988  0.9993808981995093  1.0000
  H   H6        1.0  0.8688947533517001  0.07103713344228348  0.000619101404376848  1.0000
  H   H7        1.0  0.21037213167246824  0.987450789302839  0.12395589321941346  1.0000
  H   H8        1.0  0.7896278691392379  0.012549210778432596  0.8760441063844727  1.0000
  H   H9        1.0  0.09253366216098671  0.7487201970955041  0.4323000496129586  1.0000
  H   H10       1.0  0.9074663374828819  0.2512798029971235  0.5676999500488519  1.0000
  H   H11       1.0  0.9346955948316298  0.6499469478358761  0.43084179330900424  1.0000
  H   H12       1.0  0.0653044060421876  0.35005305128349473  0.5691582069669308  1.0000
  H   H13       1.0  0.9088186788841018  0.943223688084429  0.4143889556978487  1.0000
  H   H14       1.0  0.09118132076362294  0.05677631199735051  0.5856110445445647  1.0000
  H   H15       1.0  0.8765870614421989  0.8390923758209606  0.5035364391696566  1.0000
  H   H16       1.0  0.12341293820552607  0.1609076242608187  0.49646356107275685  1.0000
  H   H17       1.0  0.6501340114873619  0.75291040140392  0.45601813440850836  1.0000
  H   H18       1.0  0.34986598932820034  0.24708959866650365  0.5439818657759807  1.0000
  H   H19       1.0  0.628111018438397  0.9196203886083926  0.45403144850553684  1.0000
  H   H20       1.0  0.371888981209328  0.08037961147338696  0.5459685517368765  1.0000
  H   H21       1.0  0.44558379637399687  0.6988042041542797  0.18144192195319714  1.0000
  H   H22       1.0  0.5544162044415656  0.30119579591614387  0.8185580782312919  1.0000
  H   H23       1.0  0.49557659069461274  0.8142774028723022  0.045142373851129666  1.0000
  H   H24       1.0  0.5044234101209497  0.18572259719812145  0.9548576263333595  1.0000
  H   H25       1.0  0.6444982042054266  0.0066366112992169365  0.017058284393607175  1.0000
  H   H26       1.0  0.35550179544229843  0.9933633887825626  0.9829417158488063  1.0000
  H   H27       1.0  0.7613010973198656  0.08798419184363687  0.1256772327694397  1.0000
  H   H28       1.0  0.23869890232400284  0.9120158082489908  0.8743227668923709  1.0000
  H   H29       1.0  0.8617709892467529  0.6223744308009698  0.30126785405227297  1.0000
  H   H30       1.0  0.1382290103971156  0.3776255692916577  0.6987321456095376  1.0000
  H   H31       1.0  0.1596663178334773  0.9125697987274816  0.2919348534704987  1.0000
  H   H32       1.0  0.8403336818103913  0.08743020136514605  0.7080651461913119  1.0000
  H   H33       1.0  0.5138149071407037  0.7128719775508976  0.3413569115274026  1.0000
  H   H34       1.0  0.4861850936710023  0.28712802253037395  0.6586430880764835  1.0000
  H   H35       1.0  0.44772797207829723  0.19023074655399166  0.17602395093056147  1.0000
  H   H36       1.0  0.5522720275694276  0.809769253527788  0.8239760493118521  1.0000
  H   H37       1.0  0.7176748657416702  0.4843419558532854  0.22770703808598702  1.0000
  H   H38       1.0  0.2823251339021983  0.5156580442393423  0.7722929615758235  1.0000
  H   H39       1.0  0.4925199134276637  0.22774265622350617  0.41661814470134745  1.0000
  H   H40       1.0  0.5074800873878987  0.7722573438469175  0.5833818554831416  1.0000
  H   H41       1.0  0.32083118465503707  0.9579848198831664  0.4300602416069285  1.0000
  H   H42       1.0  0.6791688150509431  0.042015179247560396  0.5699397587269309  1.0000
  H   H43       1.0  0.6186557888023562  0.37137149265782143  0.999818021818988  1.0000
  H   H44       1.0  0.38134421084536885  0.628628507423958  0.00018197842342545728  1.0000
  H   H45       1.0  0.037752953089268355  0.2953105815126225  0.16807697687162504  1.0000
  H   H46       1.0  0.9622470465546002  0.704689418580005  0.8319230227901856  1.0000
  H   H47       1.0  0.07437899942368294  0.3270930224387018  0.4102932368832079  1.0000
  H   H48       1.0  0.9256210013918794  0.6729069776317218  0.5897067633012811  1.0000
  H   H49       1.0  0.3202095174051567  0.5762655882779318  0.2256492558815049  1.0000
  H   H50       1.0  0.6797904822425683  0.42373441180384763  0.7743507443609086  1.0000
  H   H51       1.0  0.2097496571349425  0.47515242664213236  0.9947819414423358  1.0000
  H   H52       1.0  0.7902503425127825  0.5248475734396473  0.005218058800077704  1.0000
  H   H53       1.0  0.29993871230174596  0.5282459017209802  0.4923012022568063  1.0000
  H   H54       1.0  0.7000612885138164  0.4717540983494434  0.5076987979276827  1.0000
  H   H55       1.0  0.7940243901205726  0.031500446904798515  0.2872435488735325  1.0000
  H   H56       1.0  0.2059756107532448  0.9684995522145723  0.7127564514024024  1.0000
  H   H57       1.0  0.19449021570557462  0.8562874306511014  0.5300600950230117  1.0000
  H   H58       1.0  0.8055097851099878  0.14371256941932228  0.4699399051614774  1.0000
  H   H59       1.0  0.3209909601226498  0.7615414768762842  0.4950394052523511  1.0000
  H   H60       1.0  0.6790090406929126  0.23845852319413963  0.504960594932138  1.0000
  C   C1        1.0  0.9347109471742533  0.7048394250057285  0.1286057157624545  1.0000
  C   C2        1.0  0.06528905247347162  0.29516057507605115  0.8713942844799589  1.0000
  C   C3        1.0  0.9936817724493423  0.775086196929389  0.05778244778319047  1.0000
  C   C4        1.0  0.00631822836622006  0.22491380314103468  0.9422175524012987  1.0000
  C   C5        1.0  0.09113668309800818  0.8754425907791296  0.05623592004635293  1.0000
  C   C6        1.0  0.9088633177719528  0.12455740835108925  0.9437640796489792  1.0000
  C   C7        1.0  0.1349299380090444  0.9099145875018085  0.12496271528687698  1.0000
  C   C8        1.0  0.8650700616386805  0.09008541257997092  0.8750372849555366  1.0000
  C   C9        1.0  0.07591994921590878  0.8396789513771074  0.1960489369821175  1.0000
  C   C10       1.0  0.9240800515957972  0.1603210487041641  0.8039510626217687  1.0000
  C   C11       1.0  0.9770722244875002  0.7396331184255617  0.19759205553714396  1.0000
  C   C12       1.0  0.022927775160224758  0.2603668816562178  0.8024079447052695  1.0000
  C   C13       1.0  0.004529021142831005  0.7613474838227068  0.32195310495781104  1.0000
  C   C14       1.0  0.9954709785010378  0.23865251626992076  0.6780468947039996  1.0000
  C   C15       1.0  0.979144418739997  0.7442568327602068  0.40915439191009295  1.0000
  C   C16       1.0  0.020855582075565298  0.2557431673102168  0.5908456082743961  1.0000
  C   C17       1.0  0.8679466818945389  0.8487643151237779  0.43965957136931155  1.0000
  C   C18       1.0  0.13205331775318602  0.15123568495800152  0.560340428873102  1.0000
  C   C19       1.0  0.6947569006035481  0.8441200386813547  0.42648290196303124  1.0000
  C   C20       1.0  0.3052431002664129  0.15587996044886426  0.5735170977323008  1.0000
  C   C21       1.0  0.6619735102983337  0.8631255167268402  0.342204638256365  1.0000
  C   C22       1.0  0.33802649051337214  0.13687448335443136  0.6577953613475213  1.0000
  C   C23       1.0  0.5753030029414838  0.829808809055371  0.23005042401539838  1.0000
  C   C24       1.0  0.4246969978740785  0.17019119101505245  0.7699495761690907  1.0000
  C   C25       1.0  0.5122723940517457  0.7830408642628771  0.17017836440104495  1.0000
  C   C26       1.0  0.48772760676381677  0.21695913580754642  0.8298216357834441  1.0000
  C   C27       1.0  0.5407723709746071  0.8488992196427778  0.09379995490318266  1.0000
  C   C28       1.0  0.45922762867311795  0.15110078043900163  0.9062000453392309  1.0000
  C   C29       1.0  0.6272663147151638  0.958175879312367  0.07777900394672162  1.0000
  C   C30       1.0  0.3727336849287046  0.041824120780260654  0.9222209957150889  1.0000
  C   C31       1.0  0.6922013580264241  0.004592803085554485  0.13722229770643016  1.0000
  C   C32       1.0  0.30779864161744436  0.9954071970070731  0.8627777019553804  1.0000
  C   C33       1.0  0.6658675950841996  0.9373678485185637  0.21363175381949268  1.0000
  C   C34       1.0  0.3341324045635254  0.06263215156321587  0.7863682464229209  1.0000
  C   C35       1.0  0.4608695412817874  0.1974675384250965  0.29927296424153277  1.0000
  C   C36       1.0  0.5391304584203361  0.8025324607164782  0.7007270355117238  1.0000
  C   C37       1.0  0.49384023531843985  0.23925042551844966  0.21830167456805383  1.0000
  C   C38       1.0  0.5061597643292852  0.7607495745633298  0.7816983256743597  1.0000
  C   C39       1.0  0.5890485668288538  0.3416307809278036  0.19286044466797952  1.0000
  C   C40       1.0  0.41095143398670864  0.6583692191426201  0.8071395555165095  1.0000
  C   C41       1.0  0.6454965792470965  0.4041512267263826  0.24816175958863193  1.0000
  C   C42       1.0  0.35450342040062843  0.5958487733553969  0.7518382406537816  1.0000
  C   C43       1.0  0.6102923258323946  0.3649399243463498  0.3288167963389128  1.0000
  C   C44       1.0  0.3897076749793114  0.6350600757349218  0.6711832032649732  1.0000
  C   C45       1.0  0.5194107595248686  0.2605149310313092  0.3539652318757983  1.0000
  C   C46       1.0  0.48058924128683744  0.7394850690499625  0.6460347677280878  1.0000
  C   C47       1.0  0.3677328497509145  0.08328549464664443  0.3279686591473049  1.0000
  C   C48       1.0  0.6322671498968104  0.916714505435135  0.6720313410951085  1.0000
  C   C49       1.0  0.6371822897765074  0.3872829575527973  0.10850272566943885  1.0000
  C   C50       1.0  0.3628177098673612  0.6127170425398303  0.8914972739923718  1.0000
  C   C51       1.0  0.6702056647118871  0.4357438993914999  0.38658987383715926  1.0000
  C   C52       1.0  0.32979433499023647  0.564256099750075  0.6134101259160972  1.0000
  C   C53       1.0  0.18263085484396568  0.44223689335910943  0.18727017785381964  1.0000
  C   C54       1.0  0.8173691459715968  0.5577631067113141  0.8127298223306695  1.0000
  C   C55       1.0  0.08402648066570857  0.3421025238414716  0.21132982609873266  1.0000
  C   C56       1.0  0.9159735201459973  0.6578974762398001  0.7886701735051534  1.0000
  C   C57       1.0  0.04654103748734213  0.29972682220577535  0.2918706626828407  1.0000
  C   C58       1.0  0.953458962160383  0.7002731778760043  0.7081293375595729  1.0000
  C   C59       1.0  0.10554995152466064  0.359310548532397  0.34787591922325384  1.0000
  C   C60       1.0  0.8944500481230644  0.6406894515493825  0.6521240810191596  1.0000
  C   C61       1.0  0.20490344702143487  0.4587239001229174  0.32399802661209703  1.0000
  C   C62       1.0  0.7950965526262902  0.5412760999588621  0.6760019736303166  1.0000
  C   C63       1.0  0.24270747763850714  0.49939861963857185  0.243848346953002  1.0000
  C   C64       1.0  0.7572925220053615  0.5006013804540557  0.7561516527088087  1.0000
  C   C65       1.0  0.23153300046389313  0.4887949394029994  0.10321933505671546  1.0000
  C   C66       1.0  0.7684669992382305  0.5112050597385752  0.896780664696541  1.0000
  C   C67       1.0  0.9481315430700455  0.187120758099328  0.3191088826538997  1.0000
  C   C68       1.0  0.05186845657382286  0.8128792419932996  0.6808911170079109  1.0000
  C   C69       1.0  0.27620006063642466  0.5226042854632396  0.3809861347954331  1.0000
  C   C70       1.0  0.7237999401791377  0.4773957146071841  0.6190138653890559  1.0000
  N   N1        1.0  0.9370894988250554  0.6941193064829623  0.2766684037561496  1.0000
  N   N2        1.0  0.06291050082266951  0.30588069359881714  0.7233315964862639  1.0000
  N   N3        1.0  0.09071532699821057  0.8485769534640915  0.2744542814765522  1.0000
  N   N4        1.0  0.9092846726456579  0.15142304662853612  0.7255457181852583  1.0000
  N   N5        1.0  0.7165555994491422  0.9545747803781556  0.28470631170105454  1.0000
  N   N6        1.0  0.2834444001947263  0.04542521971447205  0.7152936879607561  1.0000
  N   N7        1.0  0.5749157170911655  0.7881478138785699  0.3107708113498136  1.0000
  N   N8        1.0  0.4250842837243969  0.21185218619185375  0.6892291888346755  1.0000
  O   O1        1.0  0.3719913729633605  0.04382226975131074  0.40460566455603303  1.0000
  O   O2        1.0  0.6280086278483454  0.9561777303299609  0.5953943350478531  1.0000
  O   O3        1.0  0.2987935292907846  0.03211494743897934  0.2830000430189529  1.0000
  O   O4        1.0  0.7012064715247778  0.9678850526314444  0.7169999571655361  1.0000
  O   O5        1.0  0.578895852456734  0.3301798011929368  0.056785452513574496  1.0000
  O   O6        1.0  0.42110414718713457  0.6698201988996908  0.943214547148236  1.0000
  O   O7        1.0  0.7296727993866624  0.4741647841039333  0.08933586021994346  1.0000
  O   O8        1.0  0.27032720025720613  0.5258352159886941  0.9106641394418672  1.0000
  O   O9        1.0  0.7466107179996413  0.5322333229103772  0.3614406376816038  1.0000
  O   O10       1.0  0.2533892828120647  0.4677666771708944  0.6385593619222824  1.0000
  O   O11       1.0  0.6373224773710016  0.3944432897175834  0.46061388235411527  1.0000
  O   O12       1.0  0.3626775234407043  0.6055567103636883  0.5393861172497709  1.0000
  O   O13       1.0  0.16588402931965135  0.4373335972584641  0.05142299435399375  1.0000
  O   O14       1.0  0.8341159703280736  0.5626664028233155  0.9485770058884198  1.0000
  O   O15       1.0  0.3305003817130232  0.5710087811506768  0.08457717126551735  1.0000
  O   O16       1.0  0.6694996191025392  0.4289912189197469  0.9154228289189718  1.0000
  O   O17       1.0  0.3561083564315364  0.6158847849683388  0.356974098128659  1.0000
  O   O18       1.0  0.6438916432123322  0.38411521512428887  0.6430259015331516  1.0000
  O   O19       1.0  0.24762575430438138  0.47358274398240996  0.45570263837931846  1.0000
  O   O20       1.0  0.7523742453433435  0.5264172560993695  0.5442973618630951  1.0000
  O   O21       1.0  0.9288955014220693  0.14783013430862166  0.39272108820224183  1.0000
  O   O22       1.0  0.07110449938963662  0.8521698657726499  0.6072789114016444  1.0000
  O   O23       1.0  0.8950765640250273  0.13854494440792334  0.2653432263112958  1.0000
  O   O24       1.0  0.10492343562269757  0.8614550556738559  0.7346567739311177  1.0000
  O   O25       1.0  0.264231401787656  0.8457785549207499  0.4811410077271778  1.0000
  O   O26       1.0  0.73576859902405  0.15422144516052175  0.5188589918767084  1.0000
