data_image0
_chemical_formula_structural       H34C30N6O10S4Br4
_chemical_formula_sum              "H34 C30 N6 O10 S4 Br4"
_cell_length_a       7.447450235684824
_cell_length_b       7.929239056052205
_cell_length_c       18.002563341933516
_cell_angle_alpha    84.91343648987893
_cell_angle_beta     78.27476460984158
_cell_angle_gamma    66.41241268054853

_space_group_name_H-M_alt    "P 1"
_space_group_IT_number       1

loop_
  _space_group_symop_operation_xyz
  'x, y, z'

loop_
  _atom_site_type_symbol
  _atom_site_label
  _atom_site_symmetry_multiplicity
  _atom_site_fract_x
  _atom_site_fract_y
  _atom_site_fract_z
  _atom_site_occupancy
  H   H1        1.0  0.6460598039216802  0.6819126995234757  0.6245122878307318  1.0000
  H   H2        1.0  0.3539401957795526  0.3180873005683023  0.3754877123099508  1.0000
  H   H3        1.0  0.6424430489072881  0.7832308617606191  0.8805282933260931  1.0000
  H   H4        1.0  0.3575569510703415  0.21676913834614414  0.1194717062472608  1.0000
  H   H5        1.0  0.6430715572840399  0.5322598273953717  0.9736861024294458  1.0000
  H   H6        1.0  0.35692844241719285  0.4677401726964063  0.026313897711236864  1.0000
  H   H7        1.0  0.8613848703640371  0.14161461844983636  0.7904483040446197  1.0000
  H   H8        1.0  0.13861512991803424  0.8583853802658602  0.20955169609451949  1.0000
  H   H9        1.0  0.8675510061943118  0.3912628716361795  0.6978221524111743  1.0000
  H   H10       1.0  0.13244899350692096  0.6087371284555985  0.3021778477295083  1.0000
  H   H11       1.0  0.16289862182642526  0.8950178555297811  0.8497523366269113  1.0000
  H   H12       1.0  0.8371013792194014  0.10498214455561675  0.1502476635154919  1.0000
  H   H13       1.0  0.10665480028341232  0.6573730501750744  0.9404284724564564  1.0000
  H   H14       1.0  0.8933452007624142  0.3426269499103234  0.05957152768594685  1.0000
  H   H15       1.0  0.3775594666804139  0.2516168555680985  0.7625808185967704  1.0000
  H   H16       1.0  0.6224405330208189  0.7483831445236794  0.23741918154391206  1.0000
  H   H17       1.0  0.43037666109868117  0.4901256775828476  0.6715857455557821  1.0000
  H   H18       1.0  0.5696233386025515  0.5098743225089304  0.3284142545849005  1.0000
  H   H19       1.0  0.8386290243477742  0.4677935029560096  0.4088015703814586  1.0000
  H   H20       1.0  0.1613709753534585  0.5322064971357684  0.5911984297592239  1.0000
  H   H21       1.0  0.7928402683312306  0.21133368488049598  0.4601258976376922  1.0000
  H   H22       1.0  0.2071597313700023  0.7886663152112819  0.5398741025029904  1.0000
  H   H23       1.0  0.7565177480118134  0.7801642117356461  0.4033911995725797  1.0000
  H   H24       1.0  0.2434822516894193  0.21983578835613193  0.5966088005681027  1.0000
  H   H25       1.0  0.8509082205536543  0.7401296588278125  0.489433500890245  1.0000
  H   H26       1.0  0.14909177914757843  0.2598703412639656  0.5105664992504375  1.0000
  H   H27       1.0  0.5901403210163292  0.8116936809711898  0.49196603508358167  1.0000
  H   H28       1.0  0.4098596786849035  0.18830631912058815  0.508033965057101  1.0000
  H   H29       1.0  0.8041926755634803  0.9994166503095548  0.5563791515794679  1.0000
  H   H30       1.0  0.19580732413775231  0.0005833497822231577  0.4436208485612146  1.0000
  H   H31       1.0  0.6282275465882611  0.18816423358602916  0.6137386726762399  1.0000
  H   H32       1.0  0.3717724531129715  0.8118357665057488  0.3862613274644426  1.0000
  H   H33       1.0  0.8874869957590593  0.11790614822037028  0.6118426271110587  1.0000
  H   H34       1.0  0.11251300394217358  0.8820938518714078  0.3881573730296238  1.0000
  C   C1        1.0  0.757609615581144  0.6003341145104534  0.784361450423349  1.0000
  C   C2        1.0  0.24239038412008856  0.39966588558132465  0.21563854971733348  1.0000
  C   C3        1.0  0.6918807076250046  0.6425363086996693  0.8613649263295967  1.0000
  C   C4        1.0  0.30811929207622824  0.3574636913921087  0.13863507381108586  1.0000
  C   C5        1.0  0.6908714858426639  0.501779633497237  0.9134001457547989  1.0000
  C   C6        1.0  0.3091285138585689  0.4982203665945409  0.08659985438588357  1.0000
  C   C7        1.0  0.7522909909540179  0.3235679634740426  0.8869589727818135  1.0000
  C   C8        1.0  0.24770900960445047  0.6764320352566394  0.11304102678999711  1.0000
  C   C9        1.0  0.8171141629681387  0.2808313309591201  0.8100560060666636  1.0000
  C   C10       1.0  0.18288583700949126  0.7191686691476431  0.18994399350669028  1.0000
  C   C11       1.0  0.8209541242771059  0.4209367953370626  0.7582952146707155  1.0000
  C   C12       1.0  0.17904587542412698  0.5790632047547153  0.2417047854699669  1.0000
  C   C13       1.0  0.29628259733414636  0.7062991874875761  0.7554803813889628  1.0000
  C   C14       1.0  0.7037174023670862  0.2937008126042019  0.24451961875171985  1.0000
  C   C15       1.0  0.20647108354606766  0.755265137482772  0.8306625919316545  1.0000
  C   C16       1.0  0.7935289161551652  0.24473486260900598  0.16933740820902796  1.0000
  C   C17       1.0  0.17623606414070686  0.6217845564898423  0.8815376010563399  1.0000
  C   C18       1.0  0.8237639355605259  0.3782154436019355  0.11846239908434263  1.0000
  C   C19       1.0  0.24006431840379952  0.4424826789259695  0.8560642640913256  1.0000
  C   C20       1.0  0.7599356826420269  0.5575173211594283  0.14393573605107757  1.0000
  C   C21       1.0  0.3285904184404559  0.3927614656260461  0.7808490290884296  1.0000
  C   C22       1.0  0.6714095812607769  0.607238534465732  0.2191509710522529  1.0000
  C   C23       1.0  0.35606583483962456  0.5268104862873881  0.7300773353706581  1.0000
  C   C24       1.0  0.6439341651380052  0.4731895138193751  0.26992266420269573  1.0000
  C   C25       1.0  0.752533639271509  0.4332454609130874  0.5214809589443931  1.0000
  C   C26       1.0  0.24746636042972373  0.5667545391786906  0.47851904119628946  1.0000
  C   C27       1.0  0.7390121743369746  0.7269271173522953  0.46138117480953866  1.0000
  C   C28       1.0  0.26098782536425824  0.2730728827394826  0.5386188253311438  1.0000
  C   C29       1.0  0.7760646625553227  0.1349617112891589  0.5770559748267484  1.0000
  C   C30       1.0  0.22393533714591005  0.8650382888026191  0.42294402531393416  1.0000
  N   N1        1.0  0.5907301306203568  0.7954809819348573  0.6640537264901766  1.0000
  N   N2        1.0  0.40926986908087587  0.2045190181569208  0.33594627365050606  1.0000
  N   N3        1.0  0.7618161397508614  0.5371687530315584  0.45778267823094015  1.0000
  N   N4        1.0  0.23818386022676827  0.46283124707520495  0.5422173213424136  1.0000
  N   N5        1.0  0.7906420174026677  0.25385164742674016  0.5121634258440214  1.0000
  N   N6        1.0  0.2093579825749621  0.746148352680023  0.4878365737293323  1.0000
  O   O1        1.0  0.9434162768835401  0.7134507689337136  0.664214029707493  1.0000
  O   O2        1.0  0.05658372309408951  0.28654923117304953  0.33578596986586096  1.0000
  O   O3        1.0  0.6920697551805008  0.9475954773016814  0.7574200897990124  1.0000
  O   O4        1.0  0.30793024479712905  0.052404522805081906  0.24257990977434146  1.0000
  O   O5        1.0  0.27672701959844875  0.8685224813911835  0.621858987664172  1.0000
  O   O6        1.0  0.7232729801027841  0.13147751870059451  0.37814101247651044  1.0000
  O   O7        1.0  0.27275818547043135  0.04361608226518714  0.7308385653565111  1.0000
  O   O8        1.0  0.7272418161562341  0.9563839164441292  0.2691614347843487  1.0000
  O   O9        1.0  0.7113784895166567  0.4970474790238263  0.5876890647119491  1.0000
  O   O10       1.0  0.28862151018457594  0.5029525210679517  0.4123109354287334  1.0000
  S   S1        1.0  0.7569552867567532  0.7776806379093586  0.717539992522232  1.0000
  S   S2        1.0  0.24304471322087662  0.2223193621974048  0.2824600070511219  1.0000
  S   S3        1.0  0.34374069413301467  0.8722355920427716  0.6914291120081565  1.0000
  S   S4        1.0  0.6562593058446151  0.12776440806399153  0.3085708875651974  1.0000
  Br  Br1       1.0  0.7515742479997767  0.13143016110282044  0.9583185063877773  1.0000
  Br  Br2       1.0  0.24842575170145625  0.8685698389889575  0.04168149375290529  1.0000
  Br  Br3       1.0  0.21442722835367226  0.25666139562542883  0.9268048725171473  1.0000
  Br  Br4       1.0  0.7855727713475604  0.743338604466349  0.07319512762353517  1.0000
