data_image0
_chemical_formula_structural       H28C34N4O10F4S4
_chemical_formula_sum              "H28 C34 N4 O10 F4 S4"
_cell_length_a       6.307519477667131
_cell_length_b       7.858979227595846
_cell_length_c       17.793357465857092
_cell_angle_alpha    95.36016229369719
_cell_angle_beta     92.76496276117727
_cell_angle_gamma    92.17962795596719

_space_group_name_H-M_alt    "P 1"
_space_group_IT_number       1

loop_
  _space_group_symop_operation_xyz
  'x, y, z'

loop_
  _atom_site_type_symbol
  _atom_site_label
  _atom_site_symmetry_multiplicity
  _atom_site_fract_x
  _atom_site_fract_y
  _atom_site_fract_z
  _atom_site_occupancy
  H   H1        1.0  0.4566117764358479  0.17072865651258745  0.641874423546716  1.0000
  H   H2        1.0  0.5433882221949486  0.8292713441755455  0.3581255765639481  1.0000
  H   H3        1.0  0.5432280679225612  0.18793848927781345  0.9037114535273276  1.0000
  H   H4        1.0  0.4567719322950973  0.8120615114033276  0.09628854661022755  1.0000
  H   H5        1.0  0.22262046800320265  0.0853560354363592  0.970695478195126  1.0000
  H   H6        1.0  0.7773795322147882  0.9146439652482581  0.029304521380572626  1.0000
  H   H7        1.0  0.00026630835764550174  0.7754993140975377  0.7684026366855228  1.0000
  H   H8        1.0  0.9997336918600128  0.22450068658360334  0.23159736345203238  1.0000
  H   H9        1.0  0.3165112596738576  0.8736080248135768  0.7016401724479476  1.0000
  H   H10       1.0  0.6834887404675013  0.12639197459187504  0.29835982707213476  1.0000
  H   H11       1.0  0.7288017287909991  0.6353676314036872  0.839672267678937  1.0000
  H   H12       1.0  0.2711982713500272  0.36463236799828846  0.16032773240300166  1.0000
  H   H13       1.0  0.5762016606007146  0.7100924760589485  0.9652278892582059  1.0000
  H   H14       1.0  0.4237983396169437  0.2899075246221924  0.03477211087934919  1.0000
  H   H15       1.0  0.9908801414794578  0.43652985596878624  0.8856497561293518  1.0000
  H   H16       1.0  0.009119858661901178  0.5634701434366657  0.11435024339073058  1.0000
  H   H17       1.0  0.1374064741239785  0.36646346450297335  0.7605224082788311  1.0000
  H   H18       1.0  0.8625935244301859  0.6335365349059942  0.2394775917762166  1.0000
  H   H19       1.0  0.011915523938774443  0.14837417267333478  0.6307191485163722  1.0000
  H   H20       1.0  0.988084476202252  0.8516258267286407  0.3692808515655664  1.0000
  H   H21       1.0  0.7274112075501943  0.29525122094868483  0.5596901686111068  1.0000
  H   H22       1.0  0.2725887926677967  0.7047487797359325  0.4403098309645922  1.0000
  H   H23       1.0  0.7932413501849822  0.3701010584608283  0.4278226206524136  1.0000
  H   H24       1.0  0.2067586499560443  0.6298989409411473  0.5721773794295251  1.0000
  H   H25       1.0  0.14194414386253867  0.29453680457389575  0.3732639980118357  1.0000
  H   H26       1.0  0.8580558563551197  0.7054631961072453  0.6267360021257194  1.0000
  H   H27       1.0  0.4074367234806366  0.14318560617079265  0.4518476569922519  1.0000
  H   H28       1.0  0.5925632767370217  0.8568143945103485  0.5481523431453031  1.0000
  C   C1        1.0  0.4453451024886301  0.03646811180050459  0.799610664266162  1.0000
  C   C2        1.0  0.5546548977293608  0.9635318888841128  0.2003893353095368  1.0000
  C   C3        1.0  0.4239047317101554  0.09757730513388102  0.8749985617843553  1.0000
  C   C4        1.0  0.5760952684308711  0.9024226942680946  0.12500143829758342  1.0000
  C   C5        1.0  0.24803820716884983  0.0420849173420954  0.9120657071174366  1.0000
  C   C6        1.0  0.7519617929721767  0.9579150820598802  0.08793429296450209  1.0000
  C   C7        1.0  0.10056933728025215  0.9287131442472896  0.8718372720402312  1.0000
  C   C8        1.0  0.8994306628607742  0.07128685515468611  0.12816272804170745  1.0000
  C   C9        1.0  0.12048790275605825  0.8646536701682378  0.797132477008445  1.0000
  C   C10       1.0  0.8795120973853007  0.13534632923721399  0.20286752251163728  1.0000
  C   C11       1.0  0.2964290467101398  0.919722316554759  0.7604374690226158  1.0000
  C   C12       1.0  0.7035709518443571  0.08027768285768482  0.23956253047057555  1.0000
  C   C13       1.0  0.4424405773729714  0.49844116869471583  0.7930538449069418  1.0000
  C   C14       1.0  0.5575594228446872  0.5015588319864251  0.2069461552306133  1.0000
  C   C15       1.0  0.5676385596001983  0.5937469570090368  0.8500402685897926  1.0000
  C   C16       1.0  0.4323614390305982  0.4062530436790962  0.14995973152087147  1.0000
  C   C17       1.0  0.48349849378591203  0.6351476139961824  0.9198566837504131  1.0000
  C   C18       1.0  0.5165015064317464  0.3648523866849588  0.08014331638714203  1.0000
  C   C19       1.0  0.2765248936390028  0.578782047428042  0.9304219168034668  1.0000
  C   C20       1.0  0.7234751049921261  0.4212179532635672  0.06957808274534111  1.0000
  C   C21       1.0  0.15067385032833322  0.48116664405567444  0.8748233598992088  1.0000
  C   C22       1.0  0.8493261498126932  0.5188333553463013  0.12517664018272986  1.0000
  C   C23       1.0  0.23508027227437645  0.44120297087437327  0.8047541229193721  1.0000
  C   C24       1.0  0.7649197279436144  0.5587970298102442  0.19524587665632662  1.0000
  C   C25       1.0  0.029180531798967704  0.18744234123836065  0.5742375289116312  1.0000
  C   C26       1.0  0.9708194684186907  0.8125576594427805  0.4257624712259239  1.0000
  C   C27       1.0  0.8759134701135008  0.26715508808323396  0.533554810578393  1.0000
  C   C28       1.0  0.12408653010415754  0.7328449125979071  0.4664451895591621  1.0000
  C   C29       1.0  0.9123322536256561  0.3072086759985388  0.4604320728172701  1.0000
  C   C30       1.0  0.08766774659200237  0.6927913246826023  0.539567927320285  1.0000
  C   C31       1.0  0.10519052862485316  0.26566975409889515  0.4298652688342645  1.0000
  C   C32       1.0  0.8948094715928053  0.7343302465822459  0.5701347313032905  1.0000
  C   C33       1.0  0.25577440092389314  0.185464388510003  0.47172265275694364  1.0000
  C   C34       1.0  0.7442255992937653  0.814535612171138  0.5282773473806114  1.0000
  N   N1        1.0  0.5529244917502558  0.23983052996509313  0.6921971902220495  1.0000
  N   N2        1.0  0.4470755083907707  0.7601694694368825  0.3078028098598892  1.0000
  N   N3        1.0  0.2155701474975551  0.14770396446562808  0.5428144679549365  1.0000
  N   N4        1.0  0.7844298526438038  0.8522960349398238  0.4571855315651459  1.0000
  O   O1        1.0  0.7319359854410028  0.9699499893189509  0.7022078032117568  1.0000
  O   O2        1.0  0.2680640147766555  0.030050011362190134  0.2977921969257983  1.0000
  O   O3        1.0  0.8076761954033321  0.21123674021667635  0.8036970344320342  1.0000
  O   O4        1.0  0.1923238047376943  0.7887632591852992  0.19630296564990446  1.0000
  O   O5        1.0  0.41350821451079  0.49524971302414295  0.6440468360040384  1.0000
  O   O6        1.0  0.5864917856302365  0.5047502863778328  0.35595316407790023  1.0000
  O   O7        1.0  0.7708086805285752  0.5203257394029017  0.7114318278469082  1.0000
  O   O8        1.0  0.22919131968908324  0.4796742612782393  0.28856817229064696  1.0000
  O   O9        1.0  0.35978935564758696  0.06612532210513565  0.5813801423853758  1.0000
  O   O10       1.0  0.6402106445700716  0.9338746785760055  0.41861985775217936  1.0000
  F   F1        1.0  0.9262029084439316  0.8763397171092931  0.9079096980958373  1.0000
  F   F2        1.0  0.0737970916970948  0.12366028229268242  0.09209030198610133  1.0000
  F   F3        1.0  0.19353230122344917  0.6233249009631561  0.9986342728513631  1.0000
  F   F4        1.0  0.8064676989942091  0.3766750997179849  0.001365727286191955  1.0000
  S   S1        1.0  0.6608473533472616  0.11204963599851339  0.7505464564149055  1.0000
  S   S2        1.0  0.3391526452838672  0.8879503646930959  0.24945354313390242  1.0000
  S   S3        1.0  0.5548056860423713  0.4502656900012764  0.705048850914649  1.0000
  S   S4        1.0  0.44519431258842523  0.5497343106868565  0.2949511491960151  1.0000
