data_image0
_chemical_formula_structural       H12C32N8S8
_chemical_formula_sum              "H12 C32 N8 S8"
_cell_length_a       8.921191879148582
_cell_length_b       12.13479539173476
_cell_length_c       7.251688044221027
_cell_angle_alpha    90.0
_cell_angle_beta     91.84428567384018
_cell_angle_gamma    90.0

_space_group_name_H-M_alt    "P 1"
_space_group_IT_number       1

loop_
  _space_group_symop_operation_xyz
  'x, y, z'

loop_
  _atom_site_type_symbol
  _atom_site_label
  _atom_site_symmetry_multiplicity
  _atom_site_fract_x
  _atom_site_fract_y
  _atom_site_fract_z
  _atom_site_occupancy
  H   H1        1.0  0.5471428717214507  0.9931306446426333  0.29682642957421934  1.0000
  H   H2        1.0  0.9528571276608251  0.4931306443020739  0.7031735697538789  1.0000
  H   H3        1.0  0.452857128360196  0.006869355214409042  0.7031735701759082  1.0000
  H   H4        1.0  0.04714287242082159  0.5068693555549685  0.2968264299962487  1.0000
  H   H5        1.0  0.6425633281962938  0.19364527659036795  0.26978750058420325  1.0000
  H   H6        1.0  0.8574366711542016  0.6936452761068509  0.7302125001210721  1.0000
  H   H7        1.0  0.35743667188535294  0.806354724090751  0.7302124991659243  1.0000
  H   H8        1.0  0.14256332892744503  0.30635472375019157  0.2697874996290554  1.0000
  H   H9        1.0  0.017896527294884938  0.19870198154657964  0.9097170023300819  1.0000
  H   H10       1.0  0.48210347236507567  0.6987019818871392  0.0902829977586127  1.0000
  H   H11       1.0  0.9821034727867619  0.8012980183104629  0.09028299742004567  1.0000
  H   H12       1.0  0.5178965276847907  0.3012980179699033  0.9097170033686922  1.0000
  C   C1        1.0  0.9304915617487942  0.01647313889908308  0.4670831832234368  1.0000
  C   C2        1.0  0.5695084387227582  0.516473138415566  0.5329168175653011  1.0000
  C   C3        1.0  0.06950843830107203  0.983526861782036  0.532916817903868  1.0000
  C   C4        1.0  0.4304915613588885  0.4835268614414764  0.46708318218482664  1.0000
  C   C5        1.0  0.6584258375179314  0.021712837464030237  0.3395628291517201  1.0000
  C   C6        1.0  0.8415741629854013  0.5217128378045897  0.6604371702598405  1.0000
  C   C7        1.0  0.3415741625637152  0.9782871623930122  0.6604371705984076  1.0000
  C   C8        1.0  0.1584258370962453  0.4782871628765292  0.3395628294902872  1.0000
  C   C9        1.0  0.7094720151753843  0.1256438910406744  0.32447619354694196  1.0000
  C   C10       1.0  0.7905279842068916  0.6256438905571573  0.6755238057811563  1.0000
  C   C11       1.0  0.2905279849062624  0.8743561096404445  0.6755238062031856  1.0000
  C   C12       1.0  0.2094720147536981  0.37435610929988505  0.324476193885509  1.0000
  C   C13       1.0  0.009683458226481716  0.11239775175187497  0.9491916124176392  1.0000
  C   C14       1.0  0.49031654143347875  0.6123977520924344  0.0508083876710555  1.0000
  C   C15       1.0  0.9903165407341079  0.8876022481051674  0.050808387249026137  1.0000
  C   C16       1.0  0.5096834586163875  0.387602247764608  0.9491916134562494  1.0000
  C   C17       1.0  0.133540599768198  0.058727632975616374  0.02949101848017872  1.0000
  C   C18       1.0  0.36645939989176257  0.5587276333161758  0.970508981608516  1.0000
  C   C19       1.0  0.8664594003134487  0.9412723668814261  0.9705089812699489  1.0000
  C   C20       1.0  0.6335406001581038  0.4412723673649431  0.029491019518788884  1.0000
  C   C21       1.0  0.270977658118983  0.11594362530070361  0.05916236355917555  1.0000
  C   C22       1.0  0.2290223415409776  0.6159436256412631  0.9408376365295191  1.0000
  C   C23       1.0  0.7290223419308833  0.8840563745563389  0.9408376375681293  1.0000
  C   C24       1.0  0.770977657419612  0.3840563742157793  0.05916236313714619  1.0000
  C   C25       1.0  0.8751367839401697  0.0545394395731453  0.9189120687503269  1.0000
  C   C26       1.0  0.6248632165631632  0.5545394399137047  0.08108793066123358  1.0000
  C   C27       1.0  0.12486321614147709  0.9454605602838971  0.08108793099980063  1.0000
  C   C28       1.0  0.37513678351848345  0.44546055994333766  0.9189120690888941  1.0000
  C   C29       1.0  0.7472952156920709  0.1091189094874969  0.8419634609485784  1.0000
  C   C30       1.0  0.7527047836902049  0.6091189098280564  0.1580365383795197  1.0000
  C   C31       1.0  0.2527047843895758  0.8908810903695454  0.15803653880154905  1.0000
  C   C32       1.0  0.24729521639144175  0.3908810900289861  0.8419634613706078  1.0000
  N   N1        1.0  0.3865646128821935  0.15920916897502052  0.08638607344152872  1.0000
  N   N2        1.0  0.11343538789882406  0.6592091693155799  0.9136139267306282  1.0000
  N   N3        1.0  0.6134353871994532  0.840790830882022  0.913613926308599  1.0000
  N   N4        1.0  0.8865646121828227  0.3407908305414624  0.08638607301949937  1.0000
  N   N5        1.0  0.6411850880981024  0.15309721672483947  0.7781501054267226  1.0000
  N   N6        1.0  0.8588149123734501  0.6530972162413224  0.22184989536201521  1.0000
  N   N7        1.0  0.3588149119517639  0.846902783132203  0.22184989570058228  1.0000
  N   N8        1.0  0.14118508770819657  0.34690278361572  0.7781501043881124  1.0000
  S   S1        1.0  0.7814631096910264  0.924319626982728  0.43183682880002605  1.0000
  S   S2        1.0  0.7185368896912493  0.42431962746624496  0.5681631705280722  1.0000
  S   S3        1.0  0.21853689039062021  0.0756803728743145  0.5681631709501015  1.0000
  S   S4        1.0  0.28146311039039734  0.5756803723907974  0.43183682922205546  1.0000
  S   S5        1.0  0.8912876112555179  0.1526232738346349  0.4031933825118385  1.0000
  S   S6        1.0  0.6087123892160344  0.6526232733511178  0.5968066182768993  1.0000
  S   S7        1.0  0.10871238882612869  0.8473767260224075  0.5968066172382891  1.0000
  S   S8        1.0  0.39128761083383184  0.34737672650592455  0.40319338285040557  1.0000
