data_image0
_chemical_formula_structural       H88C110N12O8Cl12
_chemical_formula_sum              "H88 C110 N12 O8 Cl12"
_cell_length_a       11.760936047632164
_cell_length_b       14.81500378526053
_cell_length_c       15.938909512332456
_cell_angle_alpha    88.81371755954723
_cell_angle_beta     70.2301204099497
_cell_angle_gamma    70.6929555250386

_space_group_name_H-M_alt    "P 1"
_space_group_IT_number       1

loop_
  _space_group_symop_operation_xyz
  'x, y, z'

loop_
  _atom_site_type_symbol
  _atom_site_label
  _atom_site_symmetry_multiplicity
  _atom_site_fract_x
  _atom_site_fract_y
  _atom_site_fract_z
  _atom_site_occupancy
  H   H1        1.0  0.27599051330755575  0.8523285301752209  0.44401818250151565  1.0000
  H   H2        1.0  0.724009487314706  0.14767147006954823  0.5559818171029863  1.0000
  H   H3        1.0  0.44945977427156825  0.5984540898216881  0.35519122585879803  1.0000
  H   H4        1.0  0.5505402260143265  0.40154591050025695  0.6448087744159209  1.0000
  H   H5        1.0  0.2959468112521437  0.6891166460186013  0.40964323637959493  1.0000
  H   H6        1.0  0.7040531885220774  0.31088335421830804  0.5903567632273111  1.0000
  H   H7        1.0  0.5834258138373264  0.6163274011234565  0.21390430126774843  1.0000
  H   H8        1.0  0.4165741856005279  0.38367259919062857  0.7860956990093746  1.0000
  H   H9        1.0  0.6237088273327578  0.7093677224024938  0.08158566957200483  1.0000
  H   H10       1.0  0.3762911735954398  0.29063227712746253  0.9184143300356563  1.0000
  H   H11       1.0  0.48024930585002945  0.8807589199423862  0.09359612662720909  1.0000
  H   H12       1.0  0.5197506938937604  0.1192410796568862  0.9064038736530732  1.0000
  H   H13       1.0  0.30407853910877225  0.95632788131978  0.23537412696719975  1.0000
  H   H14       1.0  0.6959214606654487  0.043672118917129576  0.7646258726397063  1.0000
  H   H15       1.0  0.8789035075423183  0.06161694865316626  0.34628524301063607  1.0000
  H   H16       1.0  0.12109649304951238  0.9383830509539659  0.653714757267242  1.0000
  H   H17       1.0  0.8860040547464447  0.20858543444033037  0.4116633165460467  1.0000
  H   H18       1.0  0.11399594587581713  0.7914145658044388  0.5883366830584552  1.0000
  H   H19       1.0  0.06212979714233456  0.19872039082282703  0.4708617331665143  1.0000
  H   H20       1.0  0.9378702026318867  0.8012796094140824  0.5291382664403917  1.0000
  H   H21       1.0  0.7073890739655493  0.555207513136112  0.42979412319557886  1.0000
  H   H22       1.0  0.29261092611460754  0.44479248638598456  0.5702058764144864  1.0000
  H   H23       1.0  0.5888719363824164  0.5892338777380376  0.5416834768699743  1.0000
  H   H24       1.0  0.4111280636977405  0.410766121784059  0.458316522740091  1.0000
  H   H25       1.0  0.03252649557987657  0.2904594122442249  0.8375793064595557  1.0000
  H   H26       1.0  0.9674735050423852  0.7095405880005444  0.1624206931449462  1.0000
  H   H27       1.0  0.2614404878407207  0.19285588975560178  0.8067324351039493  1.0000
  H   H28       1.0  0.7385595124451741  0.8071441105663433  0.19326756517076957  1.0000
  H   H29       1.0  0.4186232778499249  0.1545636116074491  0.6501539430673212  1.0000
  H   H30       1.0  0.5813767215879291  0.8454363887066362  0.34984605720980194  1.0000
  H   H31       1.0  0.3448780322969958  0.21364614516421415  0.5229750264777707  1.0000
  H   H32       1.0  0.6551219683252658  0.7863538550805551  0.4770249731267313  1.0000
  H   H33       1.0  0.03057881235653553  0.38875433829206585  0.412226780951125  1.0000
  H   H34       1.0  0.9694211873872544  0.6112456613072065  0.5877732193291573  1.0000
  H   H35       1.0  0.703810230165235  0.486094588655777  0.7207065236851958  1.0000
  H   H36       1.0  0.2961897695785549  0.5139054109434953  0.27929347659508647  1.0000
  H   H37       1.0  0.7846577229736559  0.2696048812549403  0.8032785482776876  1.0000
  H   H38       1.0  0.21534227764860592  0.7303951189898289  0.1967214513268144  1.0000
  H   H39       1.0  0.641456500294595  0.3094767387374115  0.9638028966209311  1.0000
  H   H40       1.0  0.3585434999912998  0.6905232615845335  0.03619710365378787  1.0000
  H   H41       1.0  0.7417732710325067  0.56223560934297  0.9774389528048039  1.0000
  H   H42       1.0  0.2582267290476504  0.4377643901791266  0.02256104680526136  1.0000
  H   H43       1.0  0.8849725291645202  0.5227667912504317  0.8165279984364784  1.0000
  H   H44       1.0  0.11502747060970082  0.4772332089864777  0.18347200117042775  1.0000
  H   H45       1.0  0.7489032425586224  0.601270423788429  0.29096036858713425  1.0000
  H   H46       1.0  0.2510967577272726  0.39872957653351604  0.7090396316875847  1.0000
  H   H47       1.0  0.8391887078094514  0.5510327893481206  0.12769011280429562  1.0000
  H   H48       1.0  0.16081129196476981  0.4489672108887888  0.8723098868026105  1.0000
  H   H49       1.0  0.049338988894809456  0.2686607286933404  0.17549916512564204  1.0000
  H   H50       1.0  0.9506610116970213  0.7313392709137917  0.8245008351522362  1.0000
  H   H51       1.0  0.9629484032467697  0.31795471640827005  0.3377810183762699  1.0000
  H   H52       1.0  0.03705159737549213  0.6820452838364992  0.662218981228232  1.0000
  H   H53       1.0  0.5251846977011612  0.5279100125354335  0.7223632821516773  1.0000
  H   H54       1.0  0.47481530292110036  0.4720899877093359  0.27763671745282476  1.0000
  H   H55       1.0  0.6216514380935205  0.6512882982540031  0.7402404682458432  1.0000
  H   H56       1.0  0.3783485621923742  0.348711702067942  0.2597595320288758  1.0000
  H   H57       1.0  0.451614129607129  0.6978562818284787  0.7931886707724606  1.0000
  H   H58       1.0  0.5483858704730279  0.3021437176936179  0.20681132883760459  1.0000
  H   H59       1.0  0.5265820281662872  0.7318612984627807  0.6865091837896482  1.0000
  H   H60       1.0  0.4734179712715669  0.2681387018513045  0.3134908164874748  1.0000
  H   H61       1.0  0.36566505403021393  0.683566030897518  0.6373090387769864  1.0000
  H   H62       1.0  0.6343349457440074  0.3164339693393914  0.36269096082991964  1.0000
  H   H63       1.0  0.30880755915497904  0.6320280879254836  0.7377969760400871  1.0000
  H   H64       1.0  0.691192440925178  0.3679719115966131  0.2622030235699782  1.0000
  H   H65       1.0  0.37926022340694  0.5599926315884146  0.6329437480869435  1.0000
  H   H66       1.0  0.6207397768789547  0.44000736873353036  0.36705625218777543  1.0000
  H   H67       1.0  0.42715548978022283  0.8299713252749618  0.5558542831235226  1.0000
  H   H68       1.0  0.5728445108116077  0.1700286743321703  0.4441457171543556  1.0000
  H   H69       1.0  0.2580978290028903  0.9184239680087685  0.8264808352520363  1.0000
  H   H70       1.0  0.7419021707713307  0.081576032228141  0.17351916435486978  1.0000
  H   H71       1.0  0.3566660748521536  0.028999483384342693  0.7530765925019786  1.0000
  H   H72       1.0  0.643333925228003  0.9710005161377541  0.2469234071080868  1.0000
  H   H73       1.0  0.5101794036147344  0.9895375727642838  0.6642157565474572  1.0000
  H   H74       1.0  0.48982059612905565  0.010462426834988598  0.33578424373282506  1.0000
  H   H75       1.0  0.6908639440209574  0.8774064239169628  0.6856274072316554  1.0000
  H   H76       1.0  0.3091360557532637  0.12259357631994668  0.3143725923752508  1.0000
  H   H77       1.0  0.7926348287811131  0.7814143946886123  0.7866389100843351  1.0000
  H   H78       1.0  0.20736517150478143  0.21858560563333276  0.2133610901903839  1.0000
  H   H79       1.0  0.6541692027874033  0.7565076756451775  0.937246889941209  1.0000
  H   H80       1.0  0.3458307974984913  0.2434923246767675  0.06275311033350989  1.0000
  H   H81       1.0  0.41659000229366716  0.8241205188923136  0.9824810764266849  1.0000
  H   H82       1.0  0.5834099979922277  0.1758794814296313  0.017518923848034048  1.0000
  H   H83       1.0  0.9568877604636062  0.8251543432823492  0.05209295227623705  1.0000
  H   H84       1.0  0.04311223897424783  0.174845657031736  0.947907048000886  1.0000
  H   H85       1.0  0.9301100627973823  0.918825485022336  0.1909062194874374  1.0000
  H   H86       1.0  0.06988993664047177  0.0811745152917493  0.8090937807896856  1.0000
  H   H87       1.0  0.07309203394812835  0.012864489717035764  0.18333821100408673  1.0000
  H   H88       1.0  0.9269079663377665  0.9871355106049093  0.8166617892706322  1.0000
  C   C1        1.0  0.4481264732114298  0.6982804635120612  0.4503804021562487  1.0000
  C   C2        1.0  0.5518735273804006  0.301719536095071  0.5496195981216295  1.0000
  C   C3        1.0  0.40013269007926944  0.6749064134837056  0.3784782755653143  1.0000
  C   C4        1.0  0.5998673105429924  0.3250935867610636  0.6215217240391876  1.0000
  C   C5        1.0  0.42425206852776554  0.7331334228007625  0.2999175354862922  1.0000
  C   C6        1.0  0.575747932094496  0.2668665774440066  0.7000824641182097  1.0000
  C   C7        1.0  0.5235050806444642  0.6915673122457076  0.21871824172646462  1.0000
  C   C8        1.0  0.47649491994736637  0.3084326873614246  0.7812817585514137  1.0000
  C   C9        1.0  0.545111965771447  0.743330521331996  0.14409219979249116  1.0000
  C   C10       1.0  0.45488803451444776  0.256669478989949  0.8559078004822278  1.0000
  C   C11       1.0  0.4647134931817173  0.8386134635264537  0.15061325008031104  1.0000
  C   C12       1.0  0.5352865065925039  0.16138653671045586  0.849386749526595  1.0000
  C   C13       1.0  0.36479960407151346  0.8815342961792406  0.2308812052646283  1.0000
  C   C14       1.0  0.6352003953663407  0.11846570413484465  0.7691187950124947  1.0000
  C   C15       1.0  0.34475812751112256  0.830402851701778  0.3067831884593119  1.0000
  C   C16       1.0  0.6552418719267313  0.16959714861230724  0.6932168118178111  1.0000
  C   C17       1.0  0.1536555950562318  0.9613533434236577  0.39693740732393473  1.0000
  C   C18       1.0  0.8463444043816222  0.03864665689042744  0.6030625929531884  1.0000
  C   C19       1.0  0.05162095081172994  0.9697687979962424  0.3663616317545316  1.0000
  C   C20       1.0  0.9483790486261243  0.030231202317842713  0.6336383685225915  1.0000
  C   C21       1.0  0.957051313948549  0.057654097548904944  0.3698464826222158  1.0000
  C   C22       1.0  0.04294868548930502  0.9423459027651803  0.6301535176549072  1.0000
  C   C23       1.0  0.9617812706171969  0.1402119074469935  0.40693331000530003  1.0000
  C   C24       1.0  0.03821872966869781  0.8597880928749516  0.5930666902694189  1.0000
  C   C25       1.0  0.058278552741380586  0.13506518949484814  0.44089570289675967  1.0000
  C   C26       1.0  0.9417214470328404  0.8649348107420614  0.5591042967101465  1.0000
  C   C27       1.0  0.1523292310901687  0.04621476225403025  0.4360999591664684  1.0000
  C   C28       1.0  0.8476707686536213  0.953785237345242  0.5639000411138139  1.0000
  C   C29       1.0  0.10105878199562306  0.27395269182057724  0.7691755339828001  1.0000
  C   C30       1.0  0.8989412177481669  0.7260473077786953  0.23082446629748216  1.0000
  C   C31       1.0  0.2290948673396435  0.21881703516200157  0.7513164803828577  1.0000
  C   C32       1.0  0.7709051324041464  0.7811829644372709  0.24868351989742463  1.0000
  C   C33       1.0  0.3183256953743999  0.1972000550685865  0.6627153286869003  1.0000
  C   C34       1.0  0.681674304063454  0.8027999452454988  0.3372846715902228  1.0000
  C   C35       1.0  0.2789691567560762  0.2304418363996266  0.592114031596075  1.0000
  C   C36       1.0  0.7210308435298187  0.7695581639223185  0.40788596867864385  1.0000
  C   C37       1.0  0.14965030690921577  0.28804231792480295  0.6076060761875641  1.0000
  C   C38       1.0  0.850349693376679  0.7119576823971421  0.39239392408715484  1.0000
  C   C39       1.0  0.9934713744732719  0.37538690574110994  0.5514124387711978  1.0000
  C   C40       1.0  0.006528625300949134  0.6246130944957996  0.44858756083570817  1.0000
  C   C41       1.0  0.9551491860666774  0.40911719754440634  0.4779644947203002  1.0000
  C   C42       1.0  0.04485081421921735  0.5908828027775387  0.5220355055544187  1.0000
  C   C43       1.0  0.8313129557997306  0.4676252162680355  0.4882163276978673  1.0000
  C   C44       1.0  0.1686870439440592  0.5323747833312369  0.511783672582415  1.0000
  C   C45       1.0  0.7366393288034799  0.49918040467659275  0.5800602803269782  1.0000
  C   C46       1.0  0.263360670634374  0.5008195956374926  0.419939719950145  1.0000
  C   C47       1.0  0.7738755781587677  0.4646837726116077  0.6532500775587892  1.0000
  C   C48       1.0  0.22612442161545315  0.5353162276253017  0.3467499220481169  1.0000
  C   C49       1.0  0.897272598669898  0.4033212704056748  0.6410580814822835  1.0000
  C   C50       1.0  0.10272740141025886  0.5966787291164218  0.35894191812778187  1.0000
  C   C51       1.0  0.06037077270073825  0.3098476789513844  0.6977818493377113  1.0000
  C   C52       1.0  0.9396292279215236  0.6901523212933848  0.3022181502667908  1.0000
  C   C53       1.0  0.8436585632106375  0.39359839593913876  0.8019122363818783  1.0000
  C   C54       1.0  0.15634143741162418  0.6064016043056306  0.1980877632226238  1.0000
  C   C55       1.0  0.7749514775096688  0.3336047182325551  0.8414269977725782  1.0000
  C   C56       1.0  0.22504852192818547  0.66639528208153  0.15857300250454473  1.0000
  C   C57       1.0  0.6953075126828605  0.3554809108997345  0.9311870061533442  1.0000
  C   C58       1.0  0.30469248709136054  0.644519089337175  0.0688129934535619  1.0000
  C   C59       1.0  0.6857587941154455  0.4370649583493654  0.9791661550447103  1.0000
  C   C60       1.0  0.31424120565877556  0.5629350418875442  0.020833844562195766  1.0000
  C   C61       1.0  0.751389869971591  0.49873476521891197  0.938776116185865  1.0000
  C   C62       1.0  0.24861013065067086  0.5012652350258573  0.06122388341863697  1.0000
  C   C63       1.0  0.831022245503915  0.4767129792365553  0.8490942760790299  1.0000
  C   C64       1.0  0.16897775427030595  0.5232870210003542  0.15090572352787626  1.0000
  C   C65       1.0  0.8534777219061244  0.46526312512423257  0.3263838321541107  1.0000
  C   C66       1.0  0.1465222778376657  0.5347368744750397  0.6736161681261714  1.0000
  C   C67       1.0  0.8173968536938058  0.5289225051311988  0.2655809509712723  1.0000
  C   C68       1.0  0.1826031460499841  0.4710774944680737  0.7344190493090099  1.0000
  C   C69       1.0  0.8664240896992986  0.5006440999317239  0.17406242863256668  1.0000
  C   C70       1.0  0.1335759097385556  0.4993559003823613  0.8259375716445564  1.0000
  C   C71       1.0  0.9527937471351302  0.40748523646069557  0.14181533972420696  1.0000
  C   C72       1.0  0.04720625263909093  0.5925147637762139  0.8581846598826991  1.0000
  C   C73       1.0  0.9867787688313264  0.34237238225122235  0.2011760547955864  1.0000
  C   C74       1.0  0.013221230606527625  0.6576276180628629  0.7988239454815367  1.0000
  C   C75       1.0  0.9382860278928505  0.3710314194187341  0.29284362206828013  1.0000
  C   C76       1.0  0.061713971881370615  0.6289685808181753  0.707156377538626  1.0000
  C   C77       1.0  0.5152236679734552  0.5898183631293388  0.6823662526258766  1.0000
  C   C78       1.0  0.4847763314643989  0.41018163718474643  0.3176337476512464  1.0000
  C   C79       1.0  0.530149281549707  0.6722372502035127  0.7284623740291211  1.0000
  C   C80       1.0  0.46985071904212344  0.3277627494036196  0.27153762624875716  1.0000
  C   C81       1.0  0.3844394382072406  0.6180505471660644  0.6714905981727134  1.0000
  C   C82       1.0  0.6155605627209569  0.381949452363892  0.32850940143494783  1.0000
  C   C83       1.0  0.3852725451704588  0.9102879690389799  0.6668177942606537  1.0000
  C   C84       1.0  0.6147274545733312  0.08971203056029248  0.3331822060196286  1.0000
  C   C85       1.0  0.4379953936522621  0.9659917649556473  0.7138168353111868  1.0000
  C   C86       1.0  0.562004605785592  0.03400823535843788  0.28618316496593615  1.0000
  C   C87       1.0  0.4976027095986301  0.9058854932020927  0.775842287622978  1.0000
  C   C88       1.0  0.5023972898392239  0.09411450711199269  0.22415771265414494  1.0000
  C   C89       1.0  0.6310680648287692  0.8656224216669818  0.7509590109896931  1.0000
  C   C90       1.0  0.36893193460908497  0.13437757864710348  0.24904098928742996  1.0000
  C   C91       1.0  0.6883177952560048  0.8115894350555161  0.8078588085229902  1.0000
  C   C92       1.0  0.3116822044877852  0.1884105645437563  0.19214119175729208  1.0000
  C   C93       1.0  0.6105822513829394  0.7979181465726779  0.8917621216404242  1.0000
  C   C94       1.0  0.38941774869721746  0.2020818529494189  0.10823787796964111  1.0000
  C   C95       1.0  0.47707734485559783  0.8362957336374279  0.917595797654241  1.0000
  C   C96       1.0  0.5229226545822562  0.16370426667665736  0.08240420262288195  1.0000
  C   C97       1.0  0.4190532889597635  0.8890946753451153  0.8596148944011779  1.0000
  C   C98       1.0  0.5809467111203934  0.11090532417698125  0.14038510520888736  1.0000
  C   C99       1.0  0.19778829840763143  0.9188713695002815  0.9634766158058762  1.0000
  C   C100      1.0  0.8022117018782634  0.08112863082166352  0.03652338446884272  1.0000
  C   C101      1.0  0.1162831915799465  0.8650206540356545  0.9707239200660399  1.0000
  C   C102      1.0  0.883716809348251  0.13497934549430182  0.029276079541621258  1.0000
  C   C103      1.0  0.0197316225170113  0.8654535760853582  0.05097316992906256  1.0000
  C   C104      1.0  0.9802683769208428  0.13454642422872695  0.9490268303480605  1.0000
  C   C105      1.0  0.005160688234804771  0.9178694948688987  0.12775899999527068  1.0000
  C   C106      1.0  0.9948393123570257  0.08213050473823348  0.8722410002826074  1.0000
  C   C107      1.0  0.08545268334823436  0.9702719264820496  0.12404370217994318  1.0000
  C   C108      1.0  0.9145473172435964  0.02972807312508246  0.875956298097935  1.0000
  C   C109      1.0  0.17901505232623038  0.9717325805828709  0.042749556856084926  1.0000
  C   C110      1.0  0.8209849471116237  0.02826741973121429  0.9572504434210382  1.0000
  N   N1        1.0  0.24922445156418843  0.8723671957109456  0.389174841278973  1.0000
  N   N2        1.0  0.7507755478736656  0.12763280460313972  0.61082515899815  1.0000
  N   N3        1.0  0.9346711623855555  0.3677480983248795  0.711301779378413  1.0000
  N   N4        1.0  0.06532883738866561  0.63225190191203  0.28869822022849306  1.0000
  N   N5        1.0  0.1150943116142311  0.32046470740584787  0.5362948895420182  1.0000
  N   N6        1.0  0.8849056881295588  0.6795352921934245  0.4637051107382641  1.0000
  N   N7        1.0  0.7922115371615998  0.49856152422641975  0.4176072877578445  1.0000
  N   N8        1.0  0.20778846227625425  0.5014384760876655  0.5823927125192786  1.0000
  N   N9        1.0  0.6162411592869312  0.5569185812172495  0.593723267841091  1.0000
  N   N10       1.0  0.38375884079322564  0.44308141830484715  0.4062767317689743  1.0000
  N   N11       1.0  0.28572611719767477  0.9237471800083895  0.880558517756151  1.0000
  N   N12       1.0  0.7142738822401794  0.0762528203056958  0.11944148252097203  1.0000
  O   O1        1.0  0.5504429246442964  0.6381986044336537  0.45561118665187983  1.0000
  O   O2        1.0  0.44955707543586043  0.36180139508844295  0.5443888129581855  1.0000
  O   O3        1.0  0.38161855815772766  0.7775908747750236  0.500151285565029  1.0000
  O   O4        1.0  0.6183814412801265  0.2224091255390616  0.49984871471209413  1.0000
  O   O5        1.0  0.4641408313019019  0.8706215724897887  0.5851154543930464  1.0000
  O   O6        1.0  0.5358591692899286  0.12937842711734351  0.41488454588483187  1.0000
  O   O7        1.0  0.2793708062486645  0.9009453539804863  0.7041520705982972  1.0000
  O   O8        1.0  0.7206291934951254  0.09905464561878595  0.295847929681985  1.0000
  Cl  Cl1       1.0  0.27076836771434726  0.03887771174156678  0.47980155979914413  1.0000
  Cl  Cl2       1.0  0.7292316317235067  0.9611222885725184  0.5201984404779789  1.0000
  Cl  Cl3       1.0  0.04040247603055418  0.8661147908373982  0.327755888984484  1.0000
  Cl  Cl4       1.0  0.9595975234073  0.13388520947668692  0.6722441112926391  1.0000
  Cl  Cl5       1.0  0.590734547539556  0.46235506182693714  0.09151314790084786  1.0000
  Cl  Cl6       1.0  0.4092654533886417  0.5376449377030192  0.9084868517068133  1.0000
  Cl  Cl7       1.0  0.020411008077544195  0.3725402230243268  0.027357419212102854  1.0000
  Cl  Cl8       1.0  0.9795889913603101  0.6274597772897584  0.9726425810650202  1.0000
  Cl  Cl9       1.0  0.13629413625002978  0.7979197136638694  0.8759027732925432  1.0000
  Cl  Cl10      1.0  0.8637058631878245  0.20208028665021577  0.12409722698457985  1.0000
  Cl  Cl11      1.0  0.2681467713957879  0.045240526738917944  0.038708048573536054  1.0000
  Cl  Cl12      1.0  0.7318532283784331  0.9547594734979916  0.96129195103337  1.0000
