data_image0
_chemical_formula_structural       H64C104N16O32I24
_chemical_formula_sum              "H64 C104 N16 O32 I24"
_cell_length_a       7.552897030513008
_cell_length_b       34.15034616756639
_cell_length_c       12.905400461513395
_cell_angle_alpha    90.0
_cell_angle_beta     106.65061582920256
_cell_angle_gamma    90.0

_space_group_name_H-M_alt    "P 1"
_space_group_IT_number       1

loop_
  _space_group_symop_operation_xyz
  'x, y, z'

loop_
  _atom_site_type_symbol
  _atom_site_label
  _atom_site_symmetry_multiplicity
  _atom_site_fract_x
  _atom_site_fract_y
  _atom_site_fract_z
  _atom_site_occupancy
  H   H1        1.0  0.767785508359306  0.7515558865513249  0.13129037480829067  1.0000
  H   H2        1.0  0.23221449141434972  0.2515558866621055  0.36870962528912876  1.0000
  H   H3        1.0  0.23221449052596296  0.2484441135199367  0.8687096253897723  1.0000
  H   H4        1.0  0.7677855087960643  0.7484441134091562  0.631290374911294  1.0000
  H   H5        1.0  0.6493786667001441  0.5684542925200865  0.3650235052260901  1.0000
  H   H6        1.0  0.3506213330735117  0.06845429263086708  0.13497649487132926  1.0000
  H   H7        1.0  0.35062133311816046  0.4315457075511751  0.6349764941655544  1.0000
  H   H8        1.0  0.6493786671369023  0.9315457074403946  0.8650235053290934  1.0000
  H   H9        1.0  0.5949012974782999  0.5551111542759194  0.9908337696996867  1.0000
  H   H10       1.0  0.40509870316887236  0.0551111543867  0.5091662306037394  1.0000
  H   H11       1.0  0.40509870273211407  0.4448888457953422  0.009166230500736118  1.0000
  H   H12       1.0  0.5949012970415416  0.9448888456845617  0.49083376959668323  1.0000
  H   H13       1.0  0.9894192270662377  0.5983152501512715  0.007767456922915487  1.0000
  H   H14       1.0  0.010580774032562933  0.09831525026205205  0.49223254317686355  1.0000
  H   H15       1.0  0.010580773144176268  0.4016847496271674  0.9922325432775072  1.0000
  H   H16       1.0  0.9894192261778509  0.9016847498092095  0.5077674570235592  1.0000
  H   H17       1.0  0.9698783022931785  0.6476940758219035  0.024562238931614494  1.0000
  H   H18       1.0  0.03012169748047729  0.14769407563986137  0.4754377611658049  1.0000
  H   H19       1.0  0.030121697917235523  0.3523059242493581  0.9754377612688082  1.0000
  H   H20       1.0  0.9698783014047918  0.8523059241385775  0.5245622390322582  1.0000
  H   H21       1.0  0.47277974536801654  0.7149445671853316  0.7382725295889098  1.0000
  H   H22       1.0  0.5272202539540107  0.21494456729611217  0.7617274707121566  1.0000
  H   H23       1.0  0.5272202548423974  0.28505543288593005  0.2617274706115129  1.0000
  H   H24       1.0  0.47277974625640323  0.7850554327751494  0.23827252948826616  1.0000
  H   H25       1.0  0.39673303396536874  0.714735084974964  0.5998612877830752  1.0000
  H   H26       1.0  0.6032669662896939  0.21473508479292175  0.9001387117115723  1.0000
  H   H27       1.0  0.6032669662450452  0.28526491509629764  0.40013871241734744  1.0000
  H   H28       1.0  0.3967330335286105  0.785264914985517  0.09986128768007195  1.0000
  H   H29       1.0  0.7827302757597712  0.5031378199123081  0.3037804106337587  1.0000
  H   H30       1.0  0.21726972401388456  0.003137820023088692  0.1962195894636607  1.0000
  H   H31       1.0  0.21726972445064277  0.4968621801589535  0.696219589566664  1.0000
  H   H32       1.0  0.7827302761965295  0.996862180048173  0.8037804107367621  1.0000
  H   H33       1.0  0.8375030483248593  0.4718837437526444  0.476469550733656  1.0000
  H   H34       1.0  0.16249695144879645  0.9718837436418638  0.023530449363763323  1.0000
  H   H35       1.0  0.16249695188555469  0.5281162563186172  0.5235304494667666  1.0000
  H   H36       1.0  0.8375030487616175  0.028116256136575028  0.9764695508366593  1.0000
  H   H37       1.0  0.948586973975856  0.40334161394480456  0.5008341630639638  1.0000
  H   H38       1.0  0.05141302495406188  0.9033416141268468  0.9991658364283243  1.0000
  H   H39       1.0  0.05141302584244849  0.596658386126457  0.49916583632768063  1.0000
  H   H40       1.0  0.9485869739312073  0.09665838594441482  0.0008341637697387081  1.0000
  H   H41       1.0  0.9282132644831906  0.4030582709897282  0.16030577645902558  1.0000
  H   H42       1.0  0.07178673529046511  0.9030582708789476  0.3396942236383938  1.0000
  H   H43       1.0  0.07178673533511384  0.5969417290815334  0.8396942229326189  1.0000
  H   H44       1.0  0.9282132649199489  0.09694172919231403  0.6603057765620289  1.0000
  H   H45       1.0  0.8229631712008346  0.47255250739819976  0.15249800910102013  1.0000
  H   H46       1.0  0.17703682857282116  0.972552507580242  0.3475019909963992  1.0000
  H   H47       1.0  0.17703682900957946  0.5274474923802391  0.8475019910994026  1.0000
  H   H48       1.0  0.8229631716375928  0.027447492491019642  0.6524980092040236  1.0000
  H   H49       1.0  0.22970483135302153  0.28711098159561393  0.5277668553974542  1.0000
  H   H50       1.0  0.7702951675768963  0.7871109814848334  0.9722331440948339  1.0000
  H   H51       1.0  0.7702951688573926  0.7128890184756477  0.4722331448029687  1.0000
  H   H52       1.0  0.22970483224140817  0.21288901829360543  0.027766855296810427  1.0000
  H   H53       1.0  0.10712983773138182  0.35479223169653235  0.5176457178843  1.0000
  H   H54       1.0  0.8928701629157905  0.8547922318785746  0.9823542824191259  1.0000
  H   H55       1.0  0.8928701624790321  0.6452077680819065  0.4823542823161226  1.0000
  H   H56       1.0  0.10712983729462357  0.14520776819268708  0.01764571778129674  1.0000
  H   H57       1.0  0.9492051626948946  0.3445211422534295  0.1673834128512664  1.0000
  H   H58       1.0  0.05079483668665157  0.8445211424354716  0.33261658643737463  1.0000
  H   H59       1.0  0.05079483712340983  0.6554788578178321  0.832616586540378  1.0000
  H   H60       1.0  0.9492051631316529  0.15547885763578995  0.6673834129542697  1.0000
  H   H61       1.0  0.08841400877038796  0.27754270757588134  0.19318799719604512  1.0000
  H   H62       1.0  0.9115859910032678  0.7775427074651008  0.3068120029013743  1.0000
  H   H63       1.0  0.9115859914400261  0.7224572924953803  0.8068120030043776  1.0000
  H   H64       1.0  0.08841400881503672  0.22245729231333802  0.6931879964902702  1.0000
  C   C1        1.0  0.6454530002104422  0.5570940931798979  0.18224648406699612  1.0000
  C   C2        1.0  0.35454699956321356  0.05709409329067849  0.3177535160304233  1.0000
  C   C3        1.0  0.3545469999999718  0.4429059068913637  0.8177535161334266  1.0000
  C   C4        1.0  0.6454530006472003  0.9429059067805831  0.6822464841699994  1.0000
  C   C5        1.0  0.5322425945122398  0.5942088162278231  0.16147177416405922  1.0000
  C   C6        1.0  0.46775740526141596  0.09420881604578087  0.3385282259333602  1.0000
  C   C7        1.0  0.46775740437302926  0.40579118384343854  0.8385282260340038  1.0000
  C   C8        1.0  0.532242594948998  0.905791183732658  0.6614717742670626  1.0000
  C   C9        1.0  0.6160085500161003  0.630740236842963  0.19081655534087957  1.0000
  C   C10       1.0  0.3839914497575554  0.1307402369537436  0.3091834447565398  1.0000
  C   C11       1.0  0.3839914501943137  0.36925976322829857  0.8091834448595432  1.0000
  C   C12       1.0  0.6160085504528586  0.8692597631175181  0.6908165554438831  1.0000
  C   C13       1.0  0.5119645040682035  0.665294897408036  0.16973220363362376  1.0000
  C   C14       1.0  0.4880354957054523  0.16529489722599386  0.33026779646379567  1.0000
  C   C15       1.0  0.4880354961422106  0.33470510266322556  0.830267796566799  1.0000
  C   C16       1.0  0.5119645045049617  0.8347051025524449  0.6697322037366271  1.0000
  C   C17       1.0  0.3233451076677828  0.6624574755112113  0.11698297451416018  1.0000
  C   C18       1.0  0.6766548934310178  0.16245747562199184  0.38301702558561884  1.0000
  C   C19       1.0  0.6766548925426311  0.33754252456005035  0.8830170256862624  1.0000
  C   C20       1.0  0.32334510677939615  0.8375425244492697  0.6169829746148039  1.0000
  C   C21       1.0  0.23322605858709386  0.6264488838569372  0.08215285050101412  1.0000
  C   C22       1.0  0.7667739411865618  0.126448883674895  0.41784714959640523  1.0000
  C   C23       1.0  0.7667739416233201  0.37355111621432435  0.9178471496994086  1.0000
  C   C24       1.0  0.2332260590238521  0.8735511161035437  0.5821528506040174  1.0000
  C   C25       1.0  0.3424211640322051  0.5922174879506127  0.11052550122448092  1.0000
  C   C26       1.0  0.6575788357414506  0.09221748806139324  0.3894744988729384  1.0000
  C   C27       1.0  0.6575788361782089  0.40778251182782616  0.8894744989759419  1.0000
  C   C28       1.0  0.34242116446896337  0.9077825120098684  0.6105255013274842  1.0000
  C   C29       1.0  0.6066685258682618  0.7049249106254525  0.19109479863839268  1.0000
  C   C30       1.0  0.39333147523053885  0.20492491073623303  0.30890520146138634  1.0000
  C   C31       1.0  0.39333147434215215  0.29507508944580924  0.8089052015620299  1.0000
  C   C32       1.0  0.6066685249798751  0.7950750893350287  0.6910947987390362  1.0000
  C   C33       1.0  0.6511863613621496  0.5754321198847272  0.8625367353002669  1.0000
  C   C34       1.0  0.34881363795987774  0.07543211999550786  0.6374632650007995  1.0000
  C   C35       1.0  0.3488136375231195  0.42456788018653435  0.13746326489779626  1.0000
  C   C36       1.0  0.6511863622505363  0.9245678800757537  0.36253673519962315  1.0000
  C   C37       1.0  0.5755768529657727  0.5984480154233349  0.7594943844127487  1.0000
  C   C38       1.0  0.4244231472892901  0.09844801524129276  0.7405056150818989  1.0000
  C   C39       1.0  0.42442314685253185  0.40155198464792663  0.2405056149788957  1.0000
  C   C40       1.0  0.5755768529211238  0.9015519848299689  0.2594943851185237  1.0000
  C   C41       1.0  0.5299846388586639  0.6381089111973973  0.7626877378255392  1.0000
  C   C42       1.0  0.4700153604633635  0.1381089113081779  0.7373122624755272  1.0000
  C   C43       1.0  0.4700153613517501  0.3618910888738643  0.23731226237488343  1.0000
  C   C44       1.0  0.5299846397470506  0.8618910887630837  0.2626877377248956  1.0000
  C   C45       1.0  0.4654987588406738  0.6607693523596295  0.6667755940644164  1.0000
  C   C46       1.0  0.534501240089244  0.1607693524704101  0.8332244054278716  1.0000
  C   C47       1.0  0.5345012409776306  0.3392306474188093  0.3332244053272279  1.0000
  C   C48       1.0  0.4654987584039156  0.8392306476008515  0.16677559396141317  1.0000
  C   C49       1.0  0.4488861414658487  0.6412892142451933  0.5673701702854936  1.0000
  C   C50       1.0  0.5511138591813236  0.14128921406315112  0.9326298300179323  1.0000
  C   C51       1.0  0.5511138587445654  0.3587107858260683  0.4326298299149291  1.0000
  C   C52       1.0  0.44888614102909036  0.8587107857152877  0.06737017018249027  1.0000
  C   C53       1.0  0.49874188501841815  0.6021602589062547  0.5632038884934017  1.0000
  C   C54       1.0  0.5012581156287541  0.10216025901703527  0.9367961118100243  1.0000
  C   C55       1.0  0.5012581151919959  0.39783974087218416  0.436796111707021  1.0000
  C   C56       1.0  0.49874188458165986  0.8978397410542264  0.06320388839039838  1.0000
  C   C57       1.0  0.5637017623406834  0.5807584412961556  0.659389927368922  1.0000
  C   C58       1.0  0.43629823830648895  0.08075844111411344  0.8406100729345041  1.0000
  C   C59       1.0  0.43629823786973065  0.419241558775106  0.34061007283150074  1.0000
  C   C60       1.0  0.563701761903925  0.9192415586643253  0.15938992726591864  1.0000
  C   C61       1.0  0.48633025833194243  0.5822598647297107  0.45692744381900247  1.0000
  C   C62       1.0  0.5136697427668583  0.08225986454766847  0.04307255628077659  1.0000
  C   C63       1.0  0.5136697418784716  0.41774013534155097  0.5430725563814203  1.0000
  C   C64       1.0  0.48633025744355574  0.9177401355235931  0.9569274439196461  1.0000
  C   C65       1.0  0.8648539587800514  0.45539073494868304  0.410565155529504  1.0000
  C   C66       1.0  0.13514604099360422  0.9553907348379025  0.08943484456791535  1.0000
  C   C67       1.0  0.13514604143036243  0.5446092651225786  0.5894348446709187  1.0000
  C   C68       1.0  0.8648539578916649  0.044609265233359174  0.9105651556301477  1.0000
  C   C69       1.0  0.924608149015096  0.4170083433451426  0.42188242894000705  1.0000
  C   C70       1.0  0.07539185075855974  0.9170083435271849  0.07811757115741236  1.0000
  C   C71       1.0  0.07539185119531804  0.5829916567261191  0.5781175712604157  1.0000
  C   C72       1.0  0.9246081494518542  0.08299165654407682  0.9218824290430102  1.0000
  C   C73       1.0  0.9483550609763142  0.39669534778731647  0.3317672621789935  1.0000
  C   C74       1.0  0.051644938797341576  0.8966953476765359  0.16823273791842588  1.0000
  C   C75       1.0  0.05164493884199028  0.6033046522839451  0.6682327372126509  1.0000
  C   C76       1.0  0.9483550614130725  0.10330465239472574  0.8317672622819967  1.0000
  C   C77       1.0  0.9104752137605697  0.4166359453630666  0.23283111206237297  1.0000
  C   C78       1.0  0.08952478562097653  0.916635945252286  0.2671688872262681  1.0000
  C   C79       1.0  0.08952478605773477  0.5833640547081951  0.7671688873292715  1.0000
  C   C80       1.0  0.9104752141973279  0.08336405481897567  0.7328311121653762  1.0000
  C   C81       1.0  0.8538377662730132  0.4553046570510952  0.2264708121653887  1.0000
  C   C82       1.0  0.14616223350064253  0.9553046569403145  0.2735291879320307  1.0000
  C   C83       1.0  0.14616223354529123  0.5446953430201664  0.7735291872262557  1.0000
  C   C84       1.0  0.8538377667097715  0.04469534313094698  0.726470812268392  1.0000
  C   C85       1.0  0.16412354477968727  0.3011544565181458  0.450286619041868  1.0000
  C   C86       1.0  0.8358764549939683  0.801154456700188  0.04971338105555132  1.0000
  C   C87       1.0  0.8358764554307266  0.698845543260293  0.5497133811585546  1.0000
  C   C88       1.0  0.16412354521644557  0.1988455433710736  0.9502866191448714  1.0000
  C   C89       1.0  0.09375106051881126  0.33880452904423713  0.44295666548401497  1.0000
  C   C90       1.0  0.9062489392548444  0.8388045289334566  0.05704333461340443  1.0000
  C   C91       1.0  0.9062489396916027  0.6611954710270245  0.5570433347164078  1.0000
  C   C92       1.0  0.09375106095556944  0.16119547113780508  0.9429566655870183  1.0000
  C   C93       1.0  0.015424170142838015  0.35588053808785375  0.3411650092655559  1.0000
  C   C94       1.0  0.9845758296308177  0.8558805379770731  0.15883499083186345  1.0000
  C   C95       1.0  0.984575830067576  0.6441194619834079  0.6588349909348669  1.0000
  C   C96       1.0  0.01542417057959619  0.14411946209418852  0.8411650093685592  1.0000
  C   C97       1.0  0.008653573188484937  0.33327475464390177  0.24889669592535318  1.0000
  C   C98       1.0  0.9913464265851708  0.8332747545331212  0.2511033041720662  1.0000
  C   C99       1.0  0.9913464266298195  0.6667252454273599  0.7511033034662913  1.0000
  C   C100      1.0  0.008653573625243112  0.16672524553814044  0.7488966960283564  1.0000
  C   C101      1.0  0.08324395836525554  0.29597010994867684  0.26115098262541936  1.0000
  C   C102      1.0  0.9167560414084003  0.7959701098378963  0.23884901747200005  1.0000
  C   C103      1.0  0.9167560418451585  0.7040298901225848  0.7388490175750033  1.0000
  C   C104      1.0  0.08324395880201375  0.20402988994054255  0.7611509827284226  1.0000
  N   N1        1.0  0.053837460329451386  0.6249376324117318  0.018989828324826253  1.0000
  N   N2        1.0  0.9461625394442043  0.12493763222968961  0.4810101717725931  1.0000
  N   N3        1.0  0.9461625398809627  0.37506236765952977  0.9810101718755965  1.0000
  N   N4        1.0  0.053837460766209655  0.8750623675487492  0.5189898284278296  1.0000
  N   N5        1.0  0.41740889805650583  0.6991807463046145  0.6695149448003247  1.0000
  N   N6        1.0  0.5825911025906664  0.19918074641539507  0.8304850555031014  1.0000
  N   N7        1.0  0.5825911021539081  0.30081925376664714  0.3304850554000981  1.0000
  N   N8        1.0  0.41740889761974764  0.8008192536558666  0.16951494469732128  1.0000
  N   N9        1.0  0.8320968113780081  0.4735251452694828  0.31418030449668005  1.0000
  N   N10       1.0  0.16790318839564766  0.9735251451587023  0.18581969560073933  1.0000
  N   N11       1.0  0.1679031888324059  0.5264748548017788  0.6858196957037427  1.0000
  N   N12       1.0  0.8320968114226567  0.026474854912559426  0.814180303790905  1.0000
  N   N13       1.0  0.15901017365282596  0.28080589382451265  0.36016419382532744  1.0000
  N   N14       1.0  0.8409898257287202  0.7808058937137321  0.13983580546331356  1.0000
  N   N15       1.0  0.8409898261654785  0.719194106246749  0.6398358055663169  1.0000
  N   N16       1.0  0.15901017408958426  0.2191941063575296  0.8601641939283309  1.0000
  O   O1        1.0  0.6984461270140615  0.5450993939756763  0.28070178008057967  1.0000
  O   O2        1.0  0.30155387275959417  0.045099394086456905  0.21929822001683968  1.0000
  O   O3        1.0  0.3015538731963524  0.4549006060955853  0.719298220119843  1.0000
  O   O4        1.0  0.6984461274508198  0.9549006059848046  0.780701780183583  1.0000
  O   O5        1.0  0.682108103847988  0.5398357603621841  0.1048785712468532  1.0000
  O   O6        1.0  0.317891896858703  0.03983576018014182  0.3951214280441475  1.0000
  O   O7        1.0  0.3178918959703164  0.4601642397090776  0.8951214281447912  1.0000
  O   O8        1.0  0.6821081029596014  0.9601642398911198  0.6048785713474969  1.0000
  O   O9        1.0  0.6657416495295204  0.7162694960682772  0.11145072392230118  1.0000
  O   O10       1.0  0.33425835024413525  0.21626949617905777  0.38854927617511814  1.0000
  O   O11       1.0  0.33425835068089355  0.2837305037101616  0.8885492762781214  1.0000
  O   O12       1.0  0.6657416499662787  0.7837305038922039  0.6114507240253044  1.0000
  O   O13       1.0  0.6207992761857726  0.723208238031164  0.2768711546028264  1.0000
  O   O14       1.0  0.3792007231957735  0.2232082381419445  0.22312884468581468  1.0000
  O   O15       1.0  0.37920072363253177  0.2767917620400977  0.7231288447888179  1.0000
  O   O16       1.0  0.620799276622531  0.7767917619293172  0.7768711547058298  1.0000
  O   O17       1.0  0.6452675085166755  0.5844677706065656  0.4335824120533339  1.0000
  O   O18       1.0  0.3547324912569803  0.08446777042452339  0.06641758804408554  1.0000
  O   O19       1.0  0.35473249169373855  0.41553222946469603  0.5664175881470889  1.0000
  O   O20       1.0  0.6452675089534337  0.9155322293539154  0.9335824121563372  1.0000
  O   O21       1.0  0.3443804017125992  0.5659501035557819  0.40287312792484226  1.0000
  O   O22       1.0  0.6556195980610565  0.06595010366656254  0.0971268721725772  1.0000
  O   O23       1.0  0.6556195981057054  0.4340498962226569  0.5971268714668022  1.0000
  O   O24       1.0  0.34438040214935745  0.934049896404699  0.9028731280278455  1.0000
  O   O25       1.0  0.5292729970728299  0.5675199593849716  0.9151362456592402  1.0000
  O   O26       1.0  0.47072700224919745  0.06751995949575222  0.5848637546418262  1.0000
  O   O27       1.0  0.4707270031375842  0.43248004039346716  0.08486375454118254  1.0000
  O   O28       1.0  0.5292729966360716  0.9324800405755094  0.4151362455562369  1.0000
  O   O29       1.0  0.814958122240953  0.5655343188978365  0.8923674710560231  1.0000
  O   O30       1.0  0.1850418780141098  0.06553431871579429  0.6076325284386247  1.0000
  O   O31       1.0  0.18504187796946106  0.43446568117342516  0.10763252914439973  1.0000
  O   O32       1.0  0.8149581218041946  0.9344656810626446  0.39236747095301966  1.0000
  I   I1        1.0  0.9052612845612111  0.6345748252057706  0.2636588676804529  1.0000
  I   I2        1.0  0.0947387152124447  0.13457482531655118  0.2363411324169665  1.0000
  I   I3        1.0  0.094738715649203  0.36542517486549103  0.7363411325199699  1.0000
  I   I4        1.0  0.9052612849979693  0.8654251747547105  0.7636588677834562  1.0000
  I   I5        1.0  0.16272910449313094  0.7141763553531214  0.08078582973368062  1.0000
  I   I6        1.0  0.8372708966056697  0.21417635546390193  0.4192141703660984  1.0000
  I   I7        1.0  0.837270895717283  0.2858236444253175  0.919214170466742  1.0000
  I   I8        1.0  0.16272910360474427  0.7858236446073598  0.5807858298343243  1.0000
  I   I9        1.0  0.21352010735883298  0.5368899269727836  0.08059872343018382  1.0000
  I   I10       1.0  0.7864798937399676  0.036889927083564186  0.4194012766695952  1.0000
  I   I11       1.0  0.7864798928515809  0.463110073098478  0.9194012767702389  1.0000
  I   I12       1.0  0.21352010647044636  0.9631100729876975  0.5805987235308275  1.0000
  I   I13       1.0  0.6327818111318867  0.521159608241485  0.6501995913934671  1.0000
  I   I14       1.0  0.367218189123176  0.02115960835226562  0.8498004081011807  1.0000
  I   I15       1.0  0.36721818907852716  0.47884039182977656  0.34980040880695557  1.0000
  I   I16       1.0  0.6327818106951285  0.9788403917189961  0.15019959129046373  1.0000
  I   I17       1.0  0.5725013440929738  0.6678824360398969  0.9120254950005134  1.0000
  I   I18       1.0  0.42749865616208893  0.16788243585785473  0.5879745044941344  1.0000
  I   I19       1.0  0.42749865572533063  0.33211756403136466  0.08797450439113097  1.0000
  I   I20       1.0  0.572501344048325  0.8321175639205841  0.41202549570628844  1.0000
  I   I21       1.0  0.3611672779615933  0.6735749730656162  0.4214990830742387  1.0000
  I   I22       1.0  0.6388327218120624  0.17357497288357396  0.0785009170231807  1.0000
  I   I23       1.0  0.6388327222488206  0.32642502700564546  0.578500917126184  1.0000
  I   I24       1.0  0.36116727839835155  0.8264250271876876  0.921499083177242  1.0000
