data_image0
_chemical_formula_structural       H60C72N12O16S4
_chemical_formula_sum              "H60 C72 N12 O16 S4"
_cell_length_a       9.044115466460056
_cell_length_b       10.282610087697881
_cell_length_c       18.037388573849217
_cell_angle_alpha    90.0
_cell_angle_beta     106.08617642479527
_cell_angle_gamma    90.0

_space_group_name_H-M_alt    "P 1"
_space_group_IT_number       1

loop_
  _space_group_symop_operation_xyz
  'x, y, z'

loop_
  _atom_site_type_symbol
  _atom_site_label
  _atom_site_symmetry_multiplicity
  _atom_site_fract_x
  _atom_site_fract_y
  _atom_site_fract_z
  _atom_site_occupancy
  H   H1        1.0  0.8514133531159188  0.6761985304021859  0.017258236082159983  1.0000
  H   H2        1.0  0.14858664699273053  0.1761985307765015  0.482741763740213  1.0000
  H   H3        1.0  0.1485866465035075  0.3238014688491829  0.98274176389523  1.0000
  H   H4        1.0  0.8514133526266957  0.8238014694473832  0.517258236237177  1.0000
  H   H5        1.0  0.759658878443773  0.03722405466467456  0.23909844264807414  1.0000
  H   H6        1.0  0.2403411216566791  0.5372240552628748  0.26090155772754986  1.0000
  H   H7        1.0  0.24034112117565337  0.9627759445866942  0.7609015573293159  1.0000
  H   H8        1.0  0.7596588791134656  0.4627759449610099  0.7390984424136608  1.0000
  H   H9        1.0  0.7098686129042237  0.41602969416471863  0.9029390143307238  1.0000
  H   H10       1.0  0.29013138737669814  0.9160296947629187  0.5970609859655042  1.0000
  H   H11       1.0  0.2901313878659211  0.5839703050866503  0.097060985810487  1.0000
  H   H12       1.0  0.7098686122427282  0.08397030546096586  0.40293901401188603  1.0000
  H   H13       1.0  0.5908494131020785  0.19420146567544064  0.8584554188564745  1.0000
  H   H14       1.0  0.4091505860363221  0.6942014653011251  0.6415445807226816  1.0000
  H   H15       1.0  0.4091505865173478  0.8057985345484439  0.1415445811209155  1.0000
  H   H16       1.0  0.5908494135831042  0.3057985339502438  0.35845541925470853  1.0000
  H   H17       1.0  0.47424152707514095  0.07257258552405839  0.9464524926349066  1.0000
  H   H18       1.0  0.525758473205781  0.5725725851497429  0.5535475076613213  1.0000
  H   H19       1.0  0.5257584736950038  0.9274274146998263  0.05354750750630425  1.0000
  H   H20       1.0  0.4742415264136454  0.42742741507414184  0.44645249231606876  1.0000
  H   H21       1.0  0.4516278496351788  0.28710717656522117  0.2285384115903835  1.0000
  H   H22       1.0  0.5483721504652732  0.7871071761909056  0.2714615887852405  1.0000
  H   H23       1.0  0.5483721499842475  0.7128928236586635  0.7714615883870065  1.0000
  H   H24       1.0  0.45162785030487146  0.2128928230604633  0.7285384113559702  1.0000
  H   H25       1.0  0.36527563303593874  0.2343276259091771  0.13258206621350313  1.0000
  H   H26       1.0  0.6347243670727105  0.7343276255348615  0.3674179336088699  1.0000
  H   H27       1.0  0.6347243665834876  0.7656723743147076  0.8674179337638869  1.0000
  H   H28       1.0  0.36527563254671574  0.26567237371650737  0.6325820663685201  1.0000
  H   H29       1.0  0.09844044430169227  0.7224167858788361  0.13200570831210306  1.0000
  H   H30       1.0  0.9015595546562386  0.22241678625315162  0.3679942913464491  1.0000
  H   H31       1.0  0.9015595553259313  0.27758321434504857  0.867994291112036  1.0000
  H   H32       1.0  0.09844044496318774  0.777583213970733  0.632005708630941  1.0000
  H   H33       1.0  0.7302040773757579  0.905360642930325  0.978253827376066  1.0000
  H   H34       1.0  0.26979592290516397  0.4053606433046406  0.5217461729201619  1.0000
  H   H35       1.0  0.2697959233943869  0.0946393572935596  0.021746172765144844  1.0000
  H   H36       1.0  0.7302040767142624  0.5946393569192441  0.4782538270572282  1.0000
  H   H37       1.0  0.19457293767923575  0.9294292692702556  0.198115922005962  1.0000
  H   H38       1.0  0.8054270624294135  0.42942926867205533  0.3018840778164109  1.0000
  H   H39       1.0  0.8054270619401905  0.07057073095362913  0.801884077971428  1.0000
  H   H40       1.0  0.1945729383407312  0.5705707305793135  0.6981159223247999  1.0000
  H   H41       1.0  0.8046468932864995  0.11987570271430646  0.04154551121657712  1.0000
  H   H42       1.0  0.19535310682214976  0.6198757033125066  0.4584544886057958  1.0000
  H   H43       1.0  0.19535310634112404  0.8801242975095782  0.9584544882075618  1.0000
  H   H44       1.0  0.8046468939479949  0.38012429691137795  0.541545511535415  1.0000
  H   H45       1.0  0.1762395053348701  0.09155909365136491  0.27543802345415896  1.0000
  H   H46       1.0  0.8237604947737792  0.5915590932770494  0.224561976368214  1.0000
  H   H47       1.0  0.8237604954352746  0.9084409065725196  0.7245619766870518  1.0000
  H   H48       1.0  0.1762395048456471  0.4084409069468352  0.775438023609176  1.0000
  H   H49       1.0  0.9565975778805432  0.28972197667634936  0.06130153983251346  1.0000
  H   H50       1.0  0.04340242222810599  0.7897219763020338  0.4386984599898595  1.0000
  H   H51       1.0  0.043402421738882986  0.7102780235475353  0.9386984601448766  1.0000
  H   H52       1.0  0.9565975773995175  0.21027802294933512  0.5613015394342795  1.0000
  H   H53       1.0  0.05254827850647545  0.496153826362019  0.12742949094690684  1.0000
  H   H54       1.0  0.9474517215939765  0.9961538259877035  0.37257050942871717  1.0000
  H   H55       1.0  0.9474517211129508  0.5038461738618656  0.8725705090304833  1.0000
  H   H56       1.0  0.05254827802544971  0.0038461742361811514  0.6274294905486728  1.0000
  H   H57       1.0  0.26628519249958515  0.3046844714794996  0.3313612257774127  1.0000
  H   H58       1.0  0.7337148076008668  0.8046844711051842  0.16863877459821128  1.0000
  H   H59       1.0  0.7337148082705596  0.6953155287443851  0.668638774363798  1.0000
  H   H60       1.0  0.26628519201855944  0.1953155291187006  0.8313612253791788  1.0000
  C   C1        1.0  0.5881083796618789  0.3268272550780339  0.05778963915769616  1.0000
  C   C2        1.0  0.4118916204467704  0.826827255676234  0.44221036066467684  1.0000
  C   C3        1.0  0.4118916211082659  0.6731727451458508  0.9422103609835147  1.0000
  C   C4        1.0  0.5881083791726559  0.17317274454765055  0.5577896393127132  1.0000
  C   C5        1.0  0.6592374656528076  0.4031014620460035  0.011491865013592261  1.0000
  C   C6        1.0  0.3407625332969259  0.9031014626442038  0.488508135198211  1.0000
  C   C7        1.0  0.34076253396661865  0.5968985381778812  0.9885081349637977  1.0000
  C   C8        1.0  0.6592374663225004  0.09689853757968099  0.5114918647791791  1.0000
  C   C9        1.0  0.6584446827016021  0.3557937079007806  0.9387854494179182  1.0000
  C   C10       1.0  0.3415553175793197  0.8557937084989807  0.5612145508783095  1.0000
  C   C11       1.0  0.3415553169178242  0.644206292323104  0.06121455055947174  1.0000
  C   C12       1.0  0.658444683190825  0.14420629172490387  0.43878544926290125  1.0000
  C   C13       1.0  0.5920669250850161  0.23599006665663394  0.9139019951585806  1.0000
  C   C14       1.0  0.40793307404518714  0.7359900662823184  0.5860980049738264  1.0000
  C   C15       1.0  0.40793307453441013  0.7640099335672507  0.0860980048188094  1.0000
  C   C16       1.0  0.5920669255742392  0.26400993296905045  0.41390199500356356  1.0000
  C   C17       1.0  0.5263399260867837  0.16780476214539672  0.9635154510635087  1.0000
  C   C18       1.0  0.4736600730434196  0.6678047617710812  0.5364845490688985  1.0000
  C   C19       1.0  0.47366007353264267  0.8321952380784878  0.03648454891388149  1.0000
  C   C20       1.0  0.5263399265760067  0.33219523845280347  0.46351545090849156  1.0000
  C   C21       1.0  0.7320966524076645  0.5293668128593472  0.038843212320772806  1.0000
  C   C22       1.0  0.26790334770098473  0.029366812261147002  0.46115678750160016  1.0000
  C   C23       1.0  0.2679033483624802  0.4706331873645374  0.961156787820438  1.0000
  C   C24       1.0  0.7320966519184416  0.9706331869902218  0.5388432124757898  1.0000
  C   C25       1.0  0.47541097394943904  0.24982116486876516  0.17582492648804288  1.0000
  C   C26       1.0  0.5245890261510129  0.7498211644944496  0.32417507388758116  1.0000
  C   C27       1.0  0.5245890268207056  0.7501788353551195  0.8241750736531679  1.0000
  C   C28       1.0  0.4754109734684134  0.25017883572943506  0.6758249260898088  1.0000
  C   C29       1.0  0.5579537172083504  0.12048382652204291  0.19521020321479976  1.0000
  C   C30       1.0  0.4420462829002989  0.6204838261477273  0.3047897966075732  1.0000
  C   C31       1.0  0.44204628241107585  0.8795161737018417  0.8047897967625903  1.0000
  C   C32       1.0  0.5579537178698459  0.37951617407615723  0.6952102035336376  1.0000
  C   C33       1.0  0.038217005703620924  0.8133464128923729  0.11232672042123869  1.0000
  C   C34       1.0  0.9617829944050283  0.31334641326668844  0.3876732794011343  1.0000
  C   C35       1.0  0.9617829939158052  0.18665358733151172  0.8876732795561514  1.0000
  C   C36       1.0  0.038217006365116386  0.6866535869571961  0.6123267207400765  1.0000
  C   C37       1.0  0.8328867057002484  0.9154892016437011  0.02691943646911623  1.0000
  C   C38       1.0  0.1671132944002037  0.4154892020180166  0.4730805639065078  1.0000
  C   C39       1.0  0.16711329391917795  0.08451079858018364  0.9730805635082737  1.0000
  C   C40       1.0  0.832886706369941  0.584510798205868  0.526919436234703  1.0000
  C   C41       1.0  0.09018817728333127  0.929336412496357  0.15018571481526713  1.0000
  C   C42       1.0  0.909811822825318  0.42933641287067253  0.3498142850071058  1.0000
  C   C43       1.0  0.9098118223360949  0.07066358772752765  0.8498142851621229  1.0000
  C   C44       1.0  0.09018817680230551  0.5706635873532121  0.6501857144170331  1.0000
  C   C45       1.0  0.8753635627258742  0.034904153414257635  0.06235431013610682  1.0000
  C   C46       1.0  0.124636437382775  0.5349041530399421  0.43764568968626616  1.0000
  C   C47       1.0  0.12463643690174925  0.965095846809627  0.937645689288032  1.0000
  C   C48       1.0  0.8753635622366512  0.46509584718394253  0.5623543102911238  1.0000
  C   C49       1.0  0.007486245972247516  0.04417803613340191  0.12501909508904457  1.0000
  C   C50       1.0  0.9925137541364019  0.5441780357590863  0.3749809047333284  1.0000
  C   C51       1.0  0.9925137536471786  0.9558219640904828  0.8749809048883455  1.0000
  C   C52       1.0  0.007486245483024519  0.4558219644647983  0.6250190952440616  1.0000
  C   C53       1.0  0.0575711511747209  0.17054694431116169  0.16238498230330684  1.0000
  C   C54       1.0  0.9424288489339283  0.6705469449093618  0.3376150175190661  1.0000
  C   C55       1.0  0.9424288484447052  0.8294530549402072  0.8376150176740832  1.0000
  C   C56       1.0  0.057571151844413616  0.3294530553145228  0.6623849820688936  1.0000
  C   C57       1.0  0.1454479999003812  0.17763071772849134  0.2395836405490315  1.0000
  C   C58       1.0  0.8545520002000708  0.6776307183266915  0.26041635982659256  1.0000
  C   C59       1.0  0.8545520008697636  0.8223692815228776  0.7604163595921793  1.0000
  C   C60       1.0  0.1454479994193555  0.3223692818971931  0.7395836401507975  1.0000
  C   C61       1.0  0.02194838350156956  0.28787315037272976  0.12170603668320959  1.0000
  C   C62       1.0  0.9780516165988825  0.7878731499984142  0.37829396369241436  1.0000
  C   C63       1.0  0.9780516161178567  0.7121268498511549  0.8782939632941804  1.0000
  C   C64       1.0  0.02194838302054382  0.21212684925295472  0.6217060362849756  1.0000
  C   C65       1.0  0.07637452560826125  0.40409107848708337  0.1584072184319101  1.0000
  C   C66       1.0  0.9236254744921909  0.9040910781127679  0.34159278194371395  1.0000
  C   C67       1.0  0.9236254740111651  0.5959089217368012  0.8415927815454799  1.0000
  C   C68       1.0  0.07637452627795396  0.0959089221111168  0.6584072181974969  1.0000
  C   C69       1.0  0.195365394008335  0.29798857817879243  0.2718715731657729  1.0000
  C   C70       1.0  0.8046346061003142  0.7979885787769926  0.22812842665660013  1.0000
  C   C71       1.0  0.8046346056110913  0.7020114210725765  0.7281284268116172  1.0000
  C   C72       1.0  0.1953653946698305  0.202011421446892  0.7718715734846108  1.0000
  N   N1        1.0  0.5238572134213443  0.21084166777789223  0.03333491407956195  1.0000
  N   N2        1.0  0.476142786687305  0.7108416674035767  0.466665085742811  1.0000
  N   N3        1.0  0.4761427873488005  0.7891583324459923  0.966665086061649  1.0000
  N   N4        1.0  0.5238572129321214  0.28915833282030795  0.5333349142345789  1.0000
  N   N5        1.0  0.9131728618086142  0.8061242446523412  0.051332410397000226  1.0000
  N   N6        1.0  0.08682713830003512  0.30612424502665686  0.4486675894253727  1.0000
  N   N7        1.0  0.08682713781081212  0.1938757545990276  0.9486675895803897  1.0000
  N   N8        1.0  0.9131728613275885  0.6938757551972278  0.5513324099987663  1.0000
  N   N9        1.0  0.16218805090439417  0.4097073324836335  0.23204085616915468  1.0000
  N   N10       1.0  0.8378119492042551  0.909707332109318  0.2679591436532183  1.0000
  N   N11       1.0  0.8378119487150321  0.5902926677402511  0.7679591438082354  1.0000
  N   N12       1.0  0.16218805157408692  0.09029266811456665  0.7320408559347414  1.0000
  O   O1        1.0  0.807034575693455  0.5840530467244975  0.9931271868968434  1.0000
  O   O2        1.0  0.1929654245874668  0.08405304709881302  0.5068728133993844  1.0000
  O   O3        1.0  0.19296542507668976  0.41594695349938715  0.006872813244367353  1.0000
  O   O4        1.0  0.8070345750319596  0.9159469531250717  0.49312718657800564  1.0000
  O   O5        1.0  0.7246472565978473  0.5783708581068524  0.10047493254274409  1.0000
  O   O6        1.0  0.2753527435026047  0.07837085848116788  0.39952506783288  1.0000
  O   O7        1.0  0.27535274302157897  0.42162914114451655  0.8995250674346459  1.0000
  O   O8        1.0  0.7246472572675401  0.9216291417427168  0.6004749323083309  1.0000
  O   O9        1.0  0.7091359080273062  0.13099498264662546  0.22413709998226136  1.0000
  O   O10       1.0  0.2908640920813431  0.6309949832448256  0.27586289984011164  1.0000
  O   O11       1.0  0.2908640927428386  0.8690050166047434  0.7758629001589495  1.0000
  O   O12       1.0  0.7091359075380832  0.369005016979059  0.7241371001372784  1.0000
  O   O13       1.0  0.48624328117965065  0.016897984900534256  0.18725075538195204  1.0000
  O   O14       1.0  0.5137567189208013  0.5168979854987344  0.31274924499367196  1.0000
  O   O15       1.0  0.5137567184397756  0.9831020143508346  0.812749244595438  1.0000
  O   O16       1.0  0.48624328184934335  0.4831020147251502  0.6872507551475389  1.0000
  S   S1        1.0  0.579433129355949  0.38265773927453506  0.148373560994645  1.0000
  S   S2        1.0  0.4205668707527003  0.8826577389002195  0.3516264388277279  1.0000
  S   S3        1.0  0.4205668702634773  0.6173422609493496  0.851626438982745  1.0000
  S   S4        1.0  0.579433128866726  0.1173422603511494  0.648373561149662  1.0000
