data_image0
_chemical_formula_structural       H100C84N4O8Cl4
_chemical_formula_sum              "H100 C84 N4 O8 Cl4"
_cell_length_a       14.392128542031356
_cell_length_b       13.185574258011199
_cell_length_c       10.043624364060143
_cell_angle_alpha    90.0
_cell_angle_beta     104.63395326339737
_cell_angle_gamma    90.0

_space_group_name_H-M_alt    "P 1"
_space_group_IT_number       1

loop_
  _space_group_symop_operation_xyz
  'x, y, z'

loop_
  _atom_site_type_symbol
  _atom_site_label
  _atom_site_symmetry_multiplicity
  _atom_site_fract_x
  _atom_site_fract_y
  _atom_site_fract_z
  _atom_site_occupancy
  H   H1        1.0  0.7126563212738648  0.4801647456615934  0.3509245885224597  1.0000
  H   H2        1.0  0.2873436786812426  0.9801647457370092  0.14907541114673592  1.0000
  H   H3        1.0  0.28734367924682813  0.5198352544892383  0.6490754111044119  1.0000
  H   H4        1.0  0.712656321149306  0.019835254413822428  0.8509245885054838  1.0000
  H   H5        1.0  0.503110889198717  0.3508117590850908  0.9980866364656845  1.0000
  H   H6        1.0  0.496889111197417  0.8508117591605066  0.5019133631442111  1.0000
  H   H7        1.0  0.4968891106318315  0.6491882410657408  0.001913363186535207  1.0000
  H   H8        1.0  0.5031108893232759  0.14918824099032496  0.49808663648266044  1.0000
  H   H9        1.0  0.14516350991042878  0.20639447601961916  0.36379584579836455  1.0000
  H   H10       1.0  0.8548364900446784  0.706394476095035  0.13620415387083112  1.0000
  H   H11       1.0  0.8548364899201198  0.7936055233728079  0.6362041538538553  1.0000
  H   H12       1.0  0.14516351047601425  0.29360552405579665  0.8637958457560405  1.0000
  H   H13       1.0  0.27969777159817655  0.2006599916110952  0.2441022257966109  1.0000
  H   H14       1.0  0.7203022285554191  0.7006599916865109  0.25589777490131144  1.0000
  H   H15       1.0  0.7203022291210047  0.7993400085397364  0.7558977748589873  1.0000
  H   H16       1.0  0.2796977714736177  0.29934000846432063  0.744102225779635  1.0000
  H   H17       1.0  0.08143573246281283  0.09590839240328565  0.8749744145667994  1.0000
  H   H18       1.0  0.9185642674416652  0.5959083924787014  0.6250255860971712  1.0000
  H   H19       1.0  0.9185642675662241  0.9040916077475459  0.12502558611414713  1.0000
  H   H20       1.0  0.08143573258737166  0.4040916076721302  0.37497441458377523  1.0000
  H   H21       1.0  0.7358124324054016  0.33325673148670143  0.6748916488740604  1.0000
  H   H22       1.0  0.26418756818922073  0.8332567308037127  0.8251083517645619  1.0000
  H   H23       1.0  0.2641875676236353  0.6667432686641303  0.325108351806886  1.0000
  H   H24       1.0  0.7358124325299605  0.1667432685887144  0.1748916488910363  1.0000
  H   H25       1.0  0.761164253549764  0.4512293582044872  0.6037766751026427  1.0000
  H   H26       1.0  0.23883574635471405  0.951229358279903  0.8962233255613278  1.0000
  H   H27       1.0  0.2388357464792729  0.5487706419463445  0.39622332557830375  1.0000
  H   H28       1.0  0.7611642536743227  0.04877064187092866  0.10377667511961858  1.0000
  H   H29       1.0  0.8252001059651662  0.3393477479588284  0.5814840184061846  1.0000
  H   H30       1.0  0.17479989374082333  0.8393477480342443  0.9185159812290593  1.0000
  H   H31       1.0  0.1747998938653822  0.6606522521920033  0.4185159812460351  1.0000
  H   H32       1.0  0.8252001060897252  0.1606522521165874  0.08148401842316051  1.0000
  H   H33       1.0  0.6616793477004945  0.1914375188070672  0.5232778553666552  1.0000
  H   H34       1.0  0.3383206526956395  0.6914375188824831  0.9767221442432406  1.0000
  H   H35       1.0  0.3383206521300541  0.8085624813437644  0.4767221442855645  1.0000
  H   H36       1.0  0.661679347134909  0.3085624812683486  0.023277855408979354  1.0000
  H   H37       1.0  0.739879545598252  0.20085898787387882  0.4126764010743431  1.0000
  H   H38       1.0  0.2601204543568554  0.7008589879492947  0.08732359859485259  1.0000
  H   H39       1.0  0.26012045423229657  0.7991410122769528  0.5873235985778767  1.0000
  H   H40       1.0  0.7398795461638376  0.299141012201537  0.912676401032019  1.0000
  H   H41       1.0  0.8603561906152477  0.4842067470911192  0.2825348624377981  1.0000
  H   H42       1.0  0.13964380933985962  0.984206747166535  0.21746513723139763  1.0000
  H   H43       1.0  0.13964380921530078  0.5157932530597125  0.7174651372144217  1.0000
  H   H44       1.0  0.8603561904906889  0.015793252984296617  0.7825348624208222  1.0000
  H   H45       1.0  0.5907291925374288  0.47091471850210914  0.485805005829399  1.0000
  H   H46       1.0  0.4092708074176786  0.9709147185775249  0.014194993839796619  1.0000
  H   H47       1.0  0.40927080729311976  0.5290852816487225  0.5141949938228207  1.0000
  H   H48       1.0  0.5907291924128699  0.02908528157330668  0.9858050058124231  1.0000
  H   H49       1.0  0.2890729339733536  0.5295986813587038  0.0984243226866775  1.0000
  H   H50       1.0  0.7109270659817539  0.029598681283287992  0.40157567698251817  1.0000
  H   H51       1.0  0.710927065857195  0.4704013187921278  0.9015756769655423  1.0000
  H   H52       1.0  0.28907293384879473  0.9704013188675437  0.5984243226697016  1.0000
  H   H53       1.0  0.3444513351772793  0.40940385942767604  0.9191339442351278  1.0000
  H   H54       1.0  0.6555486645287104  0.9094038595030919  0.580866055400116  1.0000
  H   H55       1.0  0.6555486646532692  0.590596139964751  0.08086605541709188  1.0000
  H   H56       1.0  0.34445133530183814  0.09059614064773981  0.4191339442521038  1.0000
  H   H57       1.0  0.24834415900575976  0.14545460079865194  0.005650759520087318  1.0000
  H   H58       1.0  0.7516558409493477  0.6454546008740678  0.49434924014910836  1.0000
  H   H59       1.0  0.751655841514933  0.8545453993521798  0.9943492401067843  1.0000
  H   H60       1.0  0.24834415888120093  0.3545453992767639  0.5056507595031114  1.0000
  H   H61       1.0  0.9478645661139994  0.10569740253468575  0.9903081107651366  1.0000
  H   H62       1.0  0.05213543359199016  0.6056974026101015  0.5096918888701072  1.0000
  H   H63       1.0  0.05213543371654901  0.894302597616146  0.009691888887083144  1.0000
  H   H64       1.0  0.9478645662385583  0.3943025975407301  0.49030811078211256  1.0000
  H   H65       1.0  0.9800301500788156  0.16016537229820563  0.23452978212620354  1.0000
  H   H66       1.0  0.019969849876291773  0.6601653723736214  0.26547021754299216  1.0000
  H   H67       1.0  0.019969849751732913  0.8398346278526261  0.7654702175260162  1.0000
  H   H68       1.0  0.9800301499542569  0.33983462777721024  0.7345297821092277  1.0000
  H   H69       1.0  0.7839028076414958  0.4370786343642543  0.1250264135537539  1.0000
  H   H70       1.0  0.21609719231361166  0.9370786344396701  0.37497358611544174  1.0000
  H   H71       1.0  0.21609719218905285  0.5629213657865774  0.8749735860984659  1.0000
  H   H72       1.0  0.7839028075169369  0.06292136571116154  0.625026413536778  1.0000
  H   H73       1.0  0.8907263180842091  0.36986562091043806  0.20640817356159233  1.0000
  H   H74       1.0  0.1092736818708983  0.8698656209858538  0.29359182610760337  1.0000
  H   H75       1.0  0.10927368174633942  0.6301343792403936  0.7935918260906274  1.0000
  H   H76       1.0  0.8907263179596502  0.1301343791649778  0.7064081735446165  1.0000
  H   H77       1.0  0.10244277869245952  0.36221493630421325  0.1295518542571535  1.0000
  H   H78       1.0  0.8975572212626478  0.8622149363796291  0.3704481454120422  1.0000
  H   H79       1.0  0.897557221138089  0.6377850630882138  0.8704481453950663  1.0000
  H   H80       1.0  0.10244277856790066  0.137785063012798  0.6295518542401776  1.0000
  H   H81       1.0  0.1552170363010332  0.5419076917077518  0.1642633667916425  1.0000
  H   H82       1.0  0.8447829636540742  0.04190769163233594  0.33573663287755323  1.0000
  H   H83       1.0  0.8447829635295153  0.4580923076846753  0.8357366328605772  1.0000
  H   H84       1.0  0.15521703617647434  0.9580923077600911  0.6642633667746667  1.0000
  H   H85       1.0  0.94623833409929  0.3203660134433269  0.9674884520178773  1.0000
  H   H86       1.0  0.053761666296844056  0.8203660135187426  0.5325115475920186  1.0000
  H   H87       1.0  0.053761665731258575  0.6796339867075049  0.03251154763434265  1.0000
  H   H88       1.0  0.9462383342238488  0.17963398663208896  0.467488452034853  1.0000
  H   H89       1.0  0.555198327566689  0.35390451251410615  0.5455741833942042  1.0000
  H   H90       1.0  0.44480167213930066  0.8539045125895219  0.9544258162410398  1.0000
  H   H91       1.0  0.4448016722638595  0.6460954868783209  0.4544258162580157  1.0000
  H   H92       1.0  0.5551983276912479  0.14609548680290507  0.04557418341118  1.0000
  H   H93       1.0  0.6125326174911918  0.20601844916610632  0.3438437260267304  1.0000
  H   H94       1.0  0.3874673824639155  0.7060184492415221  0.15615627364246526  1.0000
  H   H95       1.0  0.3874673823393566  0.7939815509847253  0.6561562736254895  1.0000
  H   H96       1.0  0.6125326173666331  0.2939815509093095  0.8438437260097545  1.0000
  H   H97       1.0  0.4012050685714582  0.30756417738393477  0.41361888274605485  1.0000
  H   H98       1.0  0.5987949315821376  0.8075641774593505  0.08638111795186744  1.0000
  H   H99       1.0  0.5987949314575787  0.692435822766897  0.5863811179348916  1.0000
  H   H100      1.0  0.4012050684468994  0.19243582269148107  0.9136188827290792  1.0000
  C   C1        1.0  0.704509531139223  0.3976226827447099  0.3346688860140249  1.0000
  C   C2        1.0  0.29549046901437276  0.8976226828201257  0.1653311146838975  1.0000
  C   C3        1.0  0.29549046888981395  0.6023773166477172  0.6653311146669216  1.0000
  C   C4        1.0  0.7045095317048086  0.10237731657230136  0.8346688859717009  1.0000
  C   C5        1.0  0.678795777855427  0.34356446987871136  0.45423281005617083  1.0000
  C   C6        1.0  0.32120422209968036  0.8435644699541273  0.045767189613024846  1.0000
  C   C7        1.0  0.3212042219751215  0.6564355302721203  0.545767189596049  1.0000
  C   C8        1.0  0.6787957777308682  0.15643553019670448  0.9542328100391951  1.0000
  C   C9        1.0  0.7549890266874107  0.3689102548601239  0.5867434099891278  1.0000
  C   C10       1.0  0.24501097390721166  0.8689102549355396  0.9132565906494946  1.0000
  C   C11       1.0  0.2450109740317705  0.6310897452907078  0.4132565906664704  1.0000
  C   C12       1.0  0.7549890261218254  0.13108974521529193  0.08674341003145189  1.0000
  C   C13       1.0  0.6722567349171081  0.22876926487803775  0.4307926194553705  1.0000
  C   C14       1.0  0.3277432650379992  0.7287692649534535  0.06920738021382516  1.0000
  C   C15       1.0  0.32774326491344036  0.7712307352727938  0.5692073801968494  1.0000
  C   C16       1.0  0.6722567347925493  0.27123073519737806  0.9307926194383946  1.0000
  C   C17       1.0  0.5832440503003151  0.38895635181637944  0.46422443460564405  1.0000
  C   C18       1.0  0.41675594965479223  0.8889563518917952  0.035775565063551694  1.0000
  C   C19       1.0  0.4167559495302335  0.6110436483344522  0.5357755650465759  1.0000
  C   C20       1.0  0.5832440501757563  0.11104364825903637  0.9642244345886681  1.0000
  C   C21       1.0  0.41240366014424173  0.36171129271083957  0.33734410422671357  1.0000
  C   C22       1.0  0.5875963393192096  0.8617112927862554  0.16265589649655698  1.0000
  C   C23       1.0  0.5875963398847952  0.6382887066815875  0.662655896454233  1.0000
  C   C24       1.0  0.4124036607098272  0.13828870736457624  0.8373441041843894  1.0000
  C   C25       1.0  0.3477549056401514  0.4166861270120143  0.2494420193611055  1.0000
  C   C26       1.0  0.6522450945134444  0.9166861270874301  0.25055798133681684  1.0000
  C   C27       1.0  0.6522450943888856  0.5833138723804128  0.750557981319841  1.0000
  C   C28       1.0  0.3477549055155925  0.08331387306340154  0.7494420193441297  1.0000
  C   C29       1.0  0.3295173625878984  0.4595135047924626  0.12592839675913356  1.0000
  C   C30       1.0  0.6704826375656975  0.9595135048678785  0.3740716039387888  1.0000
  C   C31       1.0  0.670482638131283  0.540486495358369  0.8740716038964648  1.0000
  C   C32       1.0  0.3295173624633395  0.04048649528295324  0.6259283967421576  1.0000
  C   C33       1.0  0.37615369755269645  0.4110091160199052  0.030310212902815173  1.0000
  C   C34       1.0  0.6238463017122666  0.911009116095321  0.46968978679172874  1.0000
  C   C35       1.0  0.623846302277852  0.5889908841309264  0.9696897867494045  1.0000
  C   C36       1.0  0.376153698118282  0.08899088405551062  0.5303102128604911  1.0000
  C   C37       1.0  0.4672762113699684  0.3753713522938013  0.07631738153687832  1.0000
  C   C38       1.0  0.532723788585139  0.8753713523692171  0.4236826181323173  1.0000
  C   C39       1.0  0.5327237884605801  0.6246286478570303  0.9236826181153416  1.0000
  C   C40       1.0  0.4672762112454095  0.12462864778161446  0.5763173815199024  1.0000
  C   C41       1.0  0.5317234590971394  0.3828969714331961  0.21336712783217876  1.0000
  C   C42       1.0  0.4682765410564564  0.882896971508612  0.28663287286574357  1.0000
  C   C43       1.0  0.46827654162204185  0.6171030279592309  0.7866328728234194  1.0000
  C   C44       1.0  0.5317234589725804  0.11710302864221969  0.7133671278152028  1.0000
  C   C45       1.0  0.8317089304413643  0.4156871162945253  0.2245044297860838  1.0000
  C   C46       1.0  0.16829106951374306  0.915687116369941  0.27549556988311186  1.0000
  C   C47       1.0  0.16829107007932853  0.5843128838563063  0.7754955698407878  1.0000
  C   C48       1.0  0.8317089303168056  0.08431288378089052  0.724504429769108  1.0000
  C   C49       1.0  0.13141571729667753  0.18401838573892923  0.256183885831165  1.0000
  C   C50       1.0  0.8685842828569182  0.6840183858143449  0.2438161148667573  1.0000
  C   C51       1.0  0.8685842827323593  0.8159816144119024  0.7438161148497815  1.0000
  C   C52       1.0  0.1314157171721187  0.3159816143364866  0.7561838858141892  1.0000
  C   C53       1.0  0.20622311953012032  0.18073181291684143  0.19073613529838074  1.0000
  C   C54       1.0  0.7937768804249871  0.6807318122338527  0.30926386437081493  1.0000
  C   C55       1.0  0.7937768803004281  0.8192681872339903  0.8092638643538391  1.0000
  C   C56       1.0  0.20622311940556148  0.3192681871585744  0.6907361352814049  1.0000
  C   C57       1.0  0.18838926022510807  0.14909867037497748  0.05371129244413799  1.0000
  C   C58       1.0  0.8116107397299993  0.6490986696919887  0.44628870722505765  1.0000
  C   C59       1.0  0.8116107396054404  0.8509013297758541  0.9462887072080818  1.0000
  C   C60       1.0  0.18838926079069357  0.35090132970043836  0.5537112924018139  1.0000
  C   C61       1.0  0.0955395004159343  0.12154938712860715  0.9814783958506221  1.0000
  C   C62       1.0  0.9044604992900553  0.6215493864456184  0.5185216037846219  1.0000
  C   C63       1.0  0.9044604994146143  0.8784506130222245  0.018521603801597685  1.0000
  C   C64       1.0  0.09553950054049314  0.37845061294680865  0.481478395867598  1.0000
  C   C65       1.0  0.020349902091775725  0.1268361928934487  0.04628233402030589  1.0000
  C   C66       1.0  0.9796500978633317  0.6268361929688645  0.45371766564888977  1.0000
  C   C67       1.0  0.9796500977387729  0.873163807257383  0.953717665631914  1.0000
  C   C68       1.0  0.020349901967216897  0.3731638071819671  0.54628233400333  1.0000
  C   C69       1.0  0.03828803562371992  0.15786456162387585  0.1833325771847689  1.0000
  C   C70       1.0  0.9617119645298758  0.6578645616992917  0.31666742351315347  1.0000
  C   C71       1.0  0.961711964405317  0.8421354377685513  0.8166674234961776  1.0000
  C   C72       1.0  0.03828803549916109  0.34213543769313537  0.683332577167793  1.0000
  C   C73       1.0  0.05750866041650381  0.42258503429341254  0.07323264407306654  1.0000
  C   C74       1.0  0.9424913395386036  0.9225850343688283  0.42676735559612916  1.0000
  C   C75       1.0  0.9424913394140447  0.5774149658574191  0.9267673555791532  1.0000
  C   C76       1.0  0.0575086609820893  0.07741496578200327  0.5732326440307425  1.0000
  C   C77       1.0  0.08742500453005209  0.5235312785717988  0.09149023636351404  1.0000
  C   C78       1.0  0.9125749956235437  0.02353127849638299  0.4085097643344083  1.0000
  C   C79       1.0  0.9125749954989848  0.4764687215790328  0.9085097643174325  1.0000
  C   C80       1.0  0.08742500440549322  0.9764687216544486  0.5914902363465382  1.0000
  C   C81       1.0  0.9696713298323555  0.3991722534801358  0.9817494509960898  1.0000
  C   C82       1.0  0.030328670072122667  0.8991722535555516  0.5182505496678809  1.0000
  C   C83       1.0  0.030328670196681513  0.6008277466706958  0.01825054968485674  1.0000
  C   C84       1.0  0.9696713299569142  0.10082774659527999  0.4817494510130656  1.0000
  N   N1        1.0  0.5091306002312819  0.3781709421544835  0.33442234140985566  1.0000
  N   N2        1.0  0.49086939972382543  0.8781709422298993  0.16557765825933995  1.0000
  N   N3        1.0  0.4908693995992666  0.6218290572379435  0.6655776582423641  1.0000
  N   N4        1.0  0.5091306001067231  0.1218290571625277  0.8344223413928797  1.0000
  O   O1        1.0  0.6224968938137591  0.38930753940285767  0.20792232760207494  1.0000
  O   O2        1.0  0.37750310633983675  0.8893075394782735  0.29207767309584737  1.0000
  O   O3        1.0  0.37750310621527794  0.6106924599895694  0.7920776730788716  1.0000
  O   O4        1.0  0.6224968936892001  0.11069246067255818  0.7079223275850991  1.0000
  O   O5        1.0  0.7823420629712708  0.35306411377354563  0.30220143106414055  1.0000
  O   O6        1.0  0.21765793718232487  0.8530641138489614  0.19779856963378178  1.0000
  O   O7        1.0  0.21765793705776598  0.6469358856188815  0.6977985696168059  1.0000
  O   O8        1.0  0.7823420628467121  0.14693588554346562  0.8022014310471647  1.0000
  Cl  Cl1       1.0  0.44713959122437175  0.12935358799134006  0.20521495157325242  1.0000
  Cl  Cl2       1.0  0.5528604087307356  0.6293535880667559  0.29478504809594325  1.0000
  Cl  Cl3       1.0  0.5528604086061767  0.870646411401087  0.7947850480789673  1.0000
  Cl  Cl4       1.0  0.44713959109981294  0.3706464120840758  0.7052149515562766  1.0000
