data_image0
_chemical_formula_structural       H48C44N28O8S24Br4
_chemical_formula_sum              "H48 C44 N28 O8 S24 Br4"
_cell_length_a       6.92296185862794
_cell_length_b       11.1426496709752
_cell_length_c       26.236632696614212
_cell_angle_alpha    79.98777618095788
_cell_angle_beta     86.25108940266453
_cell_angle_gamma    80.57000051621775

_space_group_name_H-M_alt    "P 1"
_space_group_IT_number       1

loop_
  _space_group_symop_operation_xyz
  'x, y, z'

loop_
  _atom_site_type_symbol
  _atom_site_label
  _atom_site_symmetry_multiplicity
  _atom_site_fract_x
  _atom_site_fract_y
  _atom_site_fract_z
  _atom_site_occupancy
  H   H1        1.0  0.10245461238933141  0.6591865109400278  0.22502035463747405  1.0000
  H   H2        1.0  0.897545387976984  0.3408134896834268  0.7749796455972312  1.0000
  H   H3        1.0  0.0576419813587829  0.908608860906914  0.33704668337383586  1.0000
  H   H4        1.0  0.9423580193097746  0.09139113895796187  0.6629533164741814  1.0000
  H   H5        1.0  0.6293117292381335  0.6671494363847748  0.3306035184497447  1.0000
  H   H6        1.0  0.37068827143042393  0.3328505634801009  0.6693964813982726  1.0000
  H   H7        1.0  0.7478104932246866  0.829067989208478  0.372114029856077  1.0000
  H   H8        1.0  0.2521895071416288  0.17093201141497677  0.6278859703786281  1.0000
  H   H9        1.0  0.06418160349358662  0.04537672115525784  0.19024878330007983  1.0000
  H   H10       1.0  0.9358183954290213  0.9546232794659439  0.8097512169339824  1.0000
  H   H11       1.0  0.9554060886772875  0.4252475384133504  0.21783261335004403  1.0000
  H   H12       1.0  0.04459391024532047  0.5747524622078514  0.7821673868840181  1.0000
  H   H13       1.0  0.47124766010571223  0.3039211042240633  0.1405476236171318  1.0000
  H   H14       1.0  0.5287523405043943  0.6960788954894003  0.8594523766182047  1.0000
  H   H15       1.0  0.38673998276036553  0.09003813853599063  0.14789561095688714  1.0000
  H   H16       1.0  0.6132600176644006  0.909961862238876  0.8521043888904988  1.0000
  H   H17       1.0  0.7457707924029668  0.665690237763566  0.030601059396355275  1.0000
  H   H18       1.0  0.25422920682188316  0.334309762099057  0.9693989404510189  1.0000
  H   H19       1.0  0.746269528198198  0.6680418310377649  0.18768727861842102  1.0000
  H   H20       1.0  0.25373047216811745  0.33195816958568963  0.8123127216162841  1.0000
  H   H21       1.0  0.7397056314744976  0.9927662119239652  0.08377170035385431  1.0000
  H   H22       1.0  0.26029436775035225  0.007233787938657865  0.9162282994935199  1.0000
  H   H23       1.0  0.2506436682790049  0.8893759554719578  0.012948904103526374  1.0000
  H   H24       1.0  0.7493563307020537  0.11062404530065614  0.9870510957432166  1.0000
  H   H25       1.0  0.24578074988669665  0.5563589434619822  0.11234053755079974  1.0000
  H   H26       1.0  0.75421925072341  0.4436410562514815  0.8876594626845368  1.0000
  H   H27       1.0  0.24061835187652875  0.5727891931999385  0.9533331833866252  1.0000
  H   H28       1.0  0.7593816487920289  0.4272108066649371  0.046666816461392126  1.0000
  H   H29       1.0  0.37163246474100564  0.40510554245266955  0.3091969745202502  1.0000
  H   H30       1.0  0.628367535869101  0.5948944572607938  0.6908030257150864  1.0000
  H   H31       1.0  0.2444252290506808  0.4091851494064799  0.46505864345581754  1.0000
  H   H32       1.0  0.7555747701741693  0.590814850456143  0.5349413563915567  1.0000
  H   H33       1.0  0.2789480735847596  0.08443913217558155  0.4084383373688905  1.0000
  H   H34       1.0  0.7210519255816396  0.9155608675356293  0.5915616628658031  1.0000
  H   H35       1.0  0.696739390628066  0.3613461770977387  0.5497114305179979  1.0000
  H   H36       1.0  0.3032606100404916  0.638653822767137  0.4502885693300194  1.0000
  H   H37       1.0  0.7356865306878582  0.03405092747428505  0.49462830406344654  1.0000
  H   H38       1.0  0.2643134699806993  0.9659490723905907  0.5053716957845708  1.0000
  H   H39       1.0  0.8013705697885686  0.3526130274633346  0.3929469235059957  1.0000
  H   H40       1.0  0.19862943082153817  0.647386972250129  0.6070530767293408  1.0000
  H   H41       1.0  0.8291621126814478  0.4507726512027637  0.3026358032315799  1.0000
  H   H42       1.0  0.17083788792865903  0.5492273485106999  0.6973641970037565  1.0000
  H   H43       1.0  0.854489790152171  0.3065648434013774  0.3200710050977363  1.0000
  H   H44       1.0  0.14551021051638682  0.6934351564634982  0.6799289947502809  1.0000
  H   H45       1.0  0.382041770944423  0.49426505695608863  0.22249206223597146  1.0000
  H   H46       1.0  0.6179582297241345  0.5057349429087872  0.7775079376120458  1.0000
  H   H47       1.0  0.5394713522644289  0.537185760611158  0.2554192651821103  1.0000
  H   H48       1.0  0.46052864816033723  0.4628142401637087  0.7445807346652756  1.0000
  C   C1        1.0  0.03143975592872746  0.7016308378145995  0.2570941347863977  1.0000
  C   C2        1.0  0.9685602432376716  0.2983691618966113  0.742905865448296  1.0000
  C   C3        1.0  0.10346435178274282  0.7892905237437982  0.2789827929805347  1.0000
  C   C4        1.0  0.8965356474421071  0.21070947611882482  0.7210172068668396  1.0000
  C   C5        1.0  0.002224857501830198  0.8392416574059463  0.3200249467781205  1.0000
  C   C6        1.0  0.9977751431082765  0.16075834230751734  0.6799750534572161  1.0000
  C   C7        1.0  0.7617502742885098  0.7061904867416879  0.3175871115724172  1.0000
  C   C8        1.0  0.23824972638004774  0.29380951312318765  0.6824128882756002  1.0000
  C   C9        1.0  0.830714551093671  0.7947864448460235  0.3394772045063346  1.0000
  C   C10       1.0  0.1692854495748866  0.20521355501885213  0.6605227953416827  1.0000
  C   C11       1.0  0.9874536274950519  0.23032258187550017  0.208128353842298  1.0000
  C   C12       1.0  0.012546371671347124  0.7696774178357106  0.7918716463923956  1.0000
  C   C13       1.0  0.10717023715767114  0.13595481365438628  0.18742662511249808  1.0000
  C   C14       1.0  0.8928297632670952  0.8640451871204804  0.8125733747348878  1.0000
  C   C15       1.0  0.04074496118280411  0.34662512926325545  0.20317394381579412  1.0000
  C   C16       1.0  0.9592550379835951  0.6533748704479554  0.7968260564188994  1.0000
  C   C17       1.0  0.3357395267307066  0.27783361525532113  0.15889069173575496  1.0000
  C   C18       1.0  0.6642604724356925  0.7221663844558895  0.8411093084989385  1.0000
  C   C19       1.0  0.2847638884470359  0.1612471005301384  0.16341224226607728  1.0000
  C   C20       1.0  0.7152361122215216  0.8387528993347374  0.8365877575819399  1.0000
  C   C21       1.0  0.736568845470046  0.8421535122523307  0.14179268270929518  1.0000
  C   C22       1.0  0.2634311549547204  0.157846488522536  0.8582073171380907  1.0000
  C   C23       1.0  0.7383985641474045  0.6487420117190174  0.11079955983631819  1.0000
  C   C24       1.0  0.26160143621891085  0.35125798890443727  0.889200440398387  1.0000
  C   C25       1.0  0.7420503616333586  0.8391356490065222  0.049068842272931706  1.0000
  C   C26       1.0  0.2579496389767483  0.16086435070694138  0.9509311579624048  1.0000
  C   C27       1.0  0.24508145402255746  0.741222146676964  0.9752855325083921  1.0000
  C   C28       1.0  0.754918546646  0.25877785318791185  0.024714467339625144  1.0000
  C   C29       1.0  0.24066950319906139  0.5466798674245668  0.033528991280581885  1.0000
  C   C30       1.0  0.7593304972257048  0.45332013335029997  0.9664710085668039  1.0000
  C   C31       1.0  0.2462691820207532  0.733498024015764  0.06876023037229421  1.0000
  C   C32       1.0  0.7537308185893534  0.26650197569769973  0.9312397698630422  1.0000
  C   C33       1.0  0.30686776426473655  0.4244053775537082  0.38585755496547275  1.0000
  C   C34       1.0  0.6931322364038208  0.5755946223111676  0.6141424448825444  1.0000
  C   C35       1.0  0.31891466710866423  0.23405886055573924  0.35234291482616226  1.0000
  C   C36       1.0  0.6810853321161858  0.7659411393068837  0.647657085021212  1.0000
  C   C37       1.0  0.2531457431642252  0.23749614420767873  0.4445640610009899  1.0000
  C   C38       1.0  0.7468542560021738  0.7625038555035321  0.5554359392337037  1.0000
  C   C39       1.0  0.7016879229460916  0.18968364108566718  0.5295317417770045  1.0000
  C   C40       1.0  0.29831207772246593  0.8103163587792085  0.47046825807101283  1.0000
  C   C41       1.0  0.7502615714415353  0.3766335187690035  0.47020370870908856  1.0000
  C   C42       1.0  0.24973842772486388  0.6233664809422073  0.529796291525605  1.0000
  C   C43       1.0  0.768917078681206  0.1831673612450904  0.43769108691639985  1.0000
  C   C44       1.0  0.23108292168510938  0.8168326393783643  0.5623089133183053  1.0000
  N   N1        1.0  0.860900980455561  0.6634581794083668  0.27635171586396506  1.0000
  N   N2        1.0  0.1390990199692053  0.3365418213664999  0.7236482839834207  1.0000
  N   N3        1.0  0.21131488628416606  0.3687926878661066  0.1775641308060438  1.0000
  N   N4        1.0  0.7886851143843916  0.6312073119987692  0.8224358690419734  1.0000
  N   N5        1.0  0.7419260604320982  0.7143284072838147  0.0614919477603473  1.0000
  N   N6        1.0  0.2580739387927517  0.28567159257880814  0.938508052087027  1.0000
  N   N7        1.0  0.7417046730488819  0.7162671949278213  0.14971960642580712  1.0000
  N   N8        1.0  0.25829532761967555  0.28373280493705444  0.8502803934222101  1.0000
  N   N9        1.0  0.7367773567419214  0.8977976714457405  0.09073773333118615  1.0000
  N   N10       1.0  0.2632226439266361  0.10220232841913533  0.9092622665168311  1.0000
  N   N11       1.0  0.25074619002891035  0.7943975703231959  0.018285919178882882  1.0000
  N   N12       1.0  0.7492538105811963  0.20560242939026752  0.9817140810564537  1.0000
  N   N13       1.0  0.24281464430200778  0.6087692852161505  0.07401292977803814  1.0000
  N   N14       1.0  0.7571853561227585  0.3912307155587162  0.9259870700693477  1.0000
  N   N15       1.0  0.2427007680156875  0.6166324694283489  0.9852272255023246  1.0000
  N   N16       1.0  0.7572992309653711  0.38336753134426493  0.014772774344418434  1.0000
  N   N17       1.0  0.33810951345573265  0.3563660281765279  0.3466167111558353  1.0000
  N   N18       1.0  0.6618904857106664  0.6436339715346828  0.6533832890788583  1.0000
  N   N19       1.0  0.2639880168825314  0.36096266914420155  0.433927513223908  1.0000
  N   N20       1.0  0.7360119837275754  0.639037330569262  0.5660724870114286  1.0000
  N   N21       1.0  0.27912863543090843  0.17924980084115133  0.40246201864495323  1.0000
  N   N22       1.0  0.7208713649938577  0.8207501999337155  0.5975379812024326  1.0000
  N   N23       1.0  0.7108834422127749  0.3133863374075197  0.5184022659441779  1.0000
  N   N24       1.0  0.28911655695362415  0.6866136623036911  0.4815977342905156  1.0000
  N   N25       1.0  0.7314013702386215  0.1294064573619805  0.48786457848455655  1.0000
  N   N26       1.0  0.26859863037148524  0.870593542351483  0.51213542175078  1.0000
  N   N27       1.0  0.7716291300062622  0.3082738641337435  0.43093219785090786  1.0000
  N   N28       1.0  0.22837086916013677  0.6917261355774672  0.5690678023837857  1.0000
  O   O1        1.0  0.7883517587722196  0.5835466414827856  0.252841701060493  1.0000
  O   O2        1.0  0.21164824045263042  0.41645335837983727  0.7471582987868812  1.0000
  O   O3        1.0  0.2543066141651744  0.4830545968446344  0.1705598914985438  1.0000
  O   O4        1.0  0.7456933865033831  0.5169454030202413  0.8294401083494735  1.0000
  O   O5        1.0  0.8745350155660561  0.38302659984453724  0.3311334885591346  1.0000
  O   O6        1.0  0.12546498504405068  0.6169733998689263  0.668866511676202  1.0000
  O   O7        1.0  0.42214212667331874  0.4972069100160712  0.2579278744821059  1.0000
  O   O8        1.0  0.577857873936788  0.5027930896973923  0.7420721257532308  1.0000
  S   S1        1.0  0.7479012339496527  0.9097789205442922  0.9879853004958733  1.0000
  S   S2        1.0  0.252098765031406  0.0902210802283217  0.012014699350869545  1.0000
  S   S3        1.0  0.7297307476223608  0.9239349205072792  0.1888409180130834  1.0000
  S   S4        1.0  0.27026925304619687  0.07606507935759642  0.8111590818349339  1.0000
  S   S5        1.0  0.7308116748918128  0.49881416725844274  0.12222898277497611  1.0000
  S   S6        1.0  0.2691883257182939  0.5011858324550208  0.8777710174603605  1.0000
  S   S7        1.0  0.23713476358205657  0.8180173870854626  0.9152804474390956  1.0000
  S   S8        1.0  0.7628652370280501  0.18198261262800086  0.08471955279624088  1.0000
  S   S9        1.0  0.2443232392442838  0.80508518453168  0.11887494425903422  1.0000
  S   S10       1.0  0.7556767614242738  0.1949148153331956  0.881125055588983  1.0000
  S   S11       1.0  0.23367409649303927  0.39609893955649805  0.04251795275077447  1.0000
  S   S12       1.0  0.7663259027318107  0.6039010603061248  0.9574820470965999  1.0000
  S   S13       1.0  0.21180084190218754  0.1671881508076804  0.5046753547734474  1.0000
  S   S14       1.0  0.7881991572642117  0.8328118489035304  0.49532464546124616  1.0000
  S   S15       1.0  0.3393244903837485  0.15426748571981747  0.3043382616710715  1.0000
  S   S16       1.0  0.6606755102263582  0.8457325139936461  0.6956617385642649  1.0000
  S   S17       1.0  0.3190410727763422  0.5739240261219403  0.3768099808941089  1.0000
  S   S18       1.0  0.6809589275899732  0.4260759745015143  0.6231900193405963  1.0000
  S   S19       1.0  0.6568291424636199  0.11965690219863571  0.5892874573866338  1.0000
  S   S20       1.0  0.34317085820493753  0.8803430976662401  0.41071254246138333  1.0000
  S   S21       1.0  0.7716000534381807  0.5250915587493102  0.4592685917258093  1.0000
  S   S22       1.0  0.22839994692813465  0.4749084418741443  0.5407314085088959  1.0000
  S   S23       1.0  0.806119519164669  0.10351097912387527  0.389482107625043  1.0000
  S   S24       1.0  0.19388048126009738  0.8964890216509914  0.610517892222343  1.0000
  Br  Br1       1.0  0.3433774994101789  0.8385354848717842  0.251417639770118  1.0000
  Br  Br2       1.0  0.6566225012583785  0.1614645149930914  0.7485823600778994  1.0000
  Br  Br3       1.0  0.7453420081940091  0.20519554696910622  0.24350487612606841  1.0000
  Br  Br4       1.0  0.254657991030841  0.7948044528935166  0.7564951237213059  1.0000
