data_image0
_chemical_formula_structural       H32C44N8O20
_chemical_formula_sum              "H32 C44 N8 O20"
_cell_length_a       7.677469284337018
_cell_length_b       11.54736086318172
_cell_length_c       12.21731907463906
_cell_angle_alpha    102.48735546197067
_cell_angle_beta     102.67062860464415
_cell_angle_gamma    89.2936433562117

_space_group_name_H-M_alt    "P 1"
_space_group_IT_number       1

loop_
  _space_group_symop_operation_xyz
  'x, y, z'

loop_
  _atom_site_type_symbol
  _atom_site_label
  _atom_site_symmetry_multiplicity
  _atom_site_fract_x
  _atom_site_fract_y
  _atom_site_fract_z
  _atom_site_occupancy
  H   H1        1.0  0.532271810829375  0.3998288539948012  0.39373177842618345  1.0000
  H   H2        1.0  0.4677281886606905  0.6001711457151895  0.6062682210410996  1.0000
  H   H3        1.0  0.0616977476243015  0.3398216888975852  0.6036114138598719  1.0000
  H   H4        1.0  0.9383022519228238  0.6601783117099246  0.39638858660793197  1.0000
  H   H5        1.0  0.055666922160792026  0.3952836844110319  0.9078844931878481  1.0000
  H   H6        1.0  0.9443330773869971  0.6047163161864686  0.09211550645954394  1.0000
  H   H7        1.0  0.4159479636043569  0.2106877574766227  0.8913498286485813  1.0000
  H   H8        1.0  0.5840520359427683  0.789312243130887  0.10865017181922264  1.0000
  H   H9        1.0  0.6986159480697607  0.07154243125153532  0.9305557622071294  1.0000
  H   H10       1.0  0.3013840514203047  0.9284575684584554  0.06944423726015356  1.0000
  H   H11       1.0  0.6487816828905686  0.1692927792829746  0.5789921477882032  1.0000
  H   H12       1.0  0.35121831799124037  0.8307072213188924  0.4210078528632251  1.0000
  H   H13       1.0  0.3480186082798277  0.2102541219521084  0.5158072163952073  1.0000
  H   H14       1.0  0.651981391209574  0.7897458777678916  0.48419278389248754  1.0000
  H   H15       1.0  0.10451994479971646  0.1041399802937576  0.5710600969187166  1.0000
  H   H16       1.0  0.8954800546896851  0.8958600194262422  0.42893990336897825  1.0000
  H   H17       1.0  0.521180060189678  0.9050808363542517  0.743220279138109  1.0000
  H   H18       1.0  0.47881993935811107  0.09491916424324864  0.2567797205092831  1.0000
  H   H19       1.0  0.7444845586475604  0.026874724057024638  0.6866285147861507  1.0000
  H   H20       1.0  0.2555154421771887  0.9731252756473233  0.3133714848647568  1.0000
  H   H21       1.0  0.7691395700448349  0.6403579439206739  0.722405700686142  1.0000
  H   H22       1.0  0.23086042944523055  0.3596420557893168  0.27759429878114106  1.0000
  H   H23       1.0  0.7833199106100635  0.4516508663969739  0.7958565530551673  1.0000
  H   H24       1.0  0.21668008887933815  0.548349133323026  0.20414344723252761  1.0000
  H   H25       1.0  0.3212956762414433  0.5122255259750187  0.9483476353448195  1.0000
  H   H26       1.0  0.6787043232486222  0.48777447373497185  0.051652364122463476  1.0000
  H   H27       1.0  0.33580835063172565  0.7006029570790185  0.8777259626532378  1.0000
  H   H28       1.0  0.6641916488576758  0.29939704264098144  0.12227403763445703  1.0000
  H   H29       1.0  0.5373702115268159  0.6563517382422911  0.18666351502863163  1.0000
  H   H30       1.0  0.46262978796324966  0.3436482614676995  0.8133364844386515  1.0000
  H   H31       1.0  0.3623590142913462  0.7175092568748257  0.13413537848914978  1.0000
  H   H32       1.0  0.6376409865904625  0.2824907437270414  0.8658646221622784  1.0000
  C   C1        1.0  0.7330346603289392  0.31945111330772646  0.49946794232014097  1.0000
  C   C2        1.0  0.2669653391604623  0.6805488864122734  0.5005320579675538  1.0000
  C   C3        1.0  0.8610898592022083  0.4157833178871196  0.49295553019506305  1.0000
  C   C4        1.0  0.13891014162254098  0.5842166818172283  0.5070444694558444  1.0000
  C   C5        1.0  0.8242729386749988  0.5094951374207478  0.4337354388479068  1.0000
  C   C6        1.0  0.17572706081506667  0.4905048622892429  0.5662645606193762  1.0000
  C   C7        1.0  0.6517823140068315  0.5332877977768636  0.35428110527750256  1.0000
  C   C8        1.0  0.3482176854832339  0.466712201933127  0.6457188941897805  1.0000
  C   C9        1.0  0.035129068690720536  0.4102886450921564  0.5565259998709183  1.0000
  C   C10       1.0  0.9648709308570687  0.5897113555053441  0.44347399977647367  1.0000
  C   C11       1.0  0.956327726301604  0.21701733691964392  0.9137427658926277  1.0000
  C   C12       1.0  0.043672273188461556  0.7829826627903469  0.08625723357465535  1.0000
  C   C13       1.0  0.9817469659187166  0.1033334259289526  0.9557365497341006  1.0000
  C   C14       1.0  0.018253034963756146  0.8966665746629051  0.044263450096915784  1.0000
  C   C15       1.0  0.8308299429247488  0.039064056105445166  0.9598209906480437  1.0000
  C   C16       1.0  0.1691700578993364  0.9609359436089119  0.040179009823275456  1.0000
  C   C17       1.0  0.1530988405125356  0.06359610219244945  0.9963151591827929  1.0000
  C   C18       1.0  0.8469011603115497  0.9364038975219078  0.0036848412885263663  1.0000
  C   C19       1.0  0.31930666989381673  0.12974422434721736  0.9943320908220438  1.0000
  C   C20       1.0  0.6806933295962487  0.8702557753627733  0.005667908645239261  1.0000
  C   C21       1.0  0.37488105878037403  0.14407839934000166  0.567922520593596  1.0000
  C   C22       1.0  0.6251189407667511  0.8559216012675083  0.4320774798742079  1.0000
  C   C23       1.0  0.24394901172272979  0.08366330035395186  0.5972774087714103  1.0000
  C   C24       1.0  0.7560509878250594  0.9163367002435486  0.4027225908759817  1.0000
  C   C25       1.0  0.29586308777742176  0.9956190660842495  0.6598218754981537  1.0000
  C   C26       1.0  0.7041369130466635  0.004380933630107663  0.3401781249731655  1.0000
  C   C27       1.0  0.477253344988615  0.9721103664843807  0.6935371301451098  1.0000
  C   C28       1.0  0.5227466545591741  0.02788963411311976  0.30646286950228224  1.0000
  C   C29       1.0  0.6016280156124234  0.03825615862530576  0.6641841387779442  1.0000
  C   C30       1.0  0.398371983877642  0.9617438410846849  0.3358158606893387  1.0000
  C   C31       1.0  0.1610814600627548  0.9266079463440258  0.6865788050229814  1.0000
  C   C32       1.0  0.8389185394273106  0.07339205336596488  0.31342119444430167  1.0000
  C   C33       1.0  0.052264607694303376  0.7869212654746797  0.7441561232333117  1.0000
  C   C34       1.0  0.9477353917950982  0.2130787342453203  0.25584387705438316  1.0000
  C   C35       1.0  0.05270281722720177  0.6822955723204784  0.7918057734569219  1.0000
  C   C36       1.0  0.9472971822628636  0.31770442738951216  0.20819422601036108  1.0000
  C   C37       1.0  0.8939926796375285  0.6141932774601848  0.7704240873685794  1.0000
  C   C38       1.0  0.106007319851873  0.38580672225981516  0.22957591291911536  1.0000
  C   C39       1.0  0.8993016775158719  0.5110303951592706  0.8110556055667805  1.0000
  C   C40       1.0  0.1006983220312533  0.48896960544823914  0.1889443949010234  1.0000
  C   C41       1.0  0.2051678977572405  0.5444414960782724  0.8962980765133528  1.0000
  C   C42       1.0  0.7948321030675086  0.4555585036260755  0.10370192313755464  1.0000
  C   C43       1.0  0.21116289613145933  0.64783962333648  0.8569349378487878  1.0000
  C   C44       1.0  0.7888371046926258  0.3521603763778772  0.1430650626225313  1.0000
  N   N1        1.0  0.5480622349502289  0.12051882229998097  0.6020695535571019  1.0000
  N   N2        1.0  0.45193776453983664  0.8794811774100098  0.3979304459101811  1.0000
  N   N3        1.0  0.9867571925634879  0.9343036341680242  0.6613962103781047  1.0000
  N   N4        1.0  0.013242806984301239  0.0656963664294762  0.33860378926928736  1.0000
  N   N5        1.0  0.916143122590851  0.84376105772299  0.6981161974914863  1.0000
  N   N6        1.0  0.08385687689855054  0.1562389419970099  0.30188380279620847  1.0000
  N   N7        1.0  0.052979872601158315  0.47852416236800654  0.8716568245675053  1.0000
  N   N8        1.0  0.9470201269459669  0.5214758382395033  0.1283431759002986  1.0000
  O   O1        1.0  0.5652713894131365  0.32136449477704915  0.455501289347125  1.0000
  O   O2        1.0  0.43472861007692903  0.6786355049329414  0.544498710120158  1.0000
  O   O3        1.0  0.7988994197190091  0.2397951615923657  0.550768196202862  1.0000
  O   O4        1.0  0.20110058116279972  0.7602048390095013  0.44923180444856625  1.0000
  O   O5        1.0  0.5086389384495208  0.4673014675303536  0.3390189814843006  1.0000
  O   O6        1.0  0.4913610623752284  0.5326985321739943  0.6609810181666068  1.0000
  O   O7        1.0  0.6540357047092704  0.6158364863523358  0.3037440680883353  1.0000
  O   O8        1.0  0.3459642948378548  0.38416351425517403  0.6962559323794686  1.0000
  O   O9        1.0  0.07525728784162922  0.29965204138110607  0.9626138537856086  1.0000
  O   O10       1.0  0.9247427116477722  0.7003479583388939  0.03738614650208626  1.0000
  O   O11       1.0  0.8201299895345279  0.22523602467515896  0.8363577386852658  1.0000
  O   O12       1.0  0.17987001129022132  0.7747639750291889  0.16364226096564174  1.0000
  O   O13       1.0  0.32627421377462984  0.14177198579212852  0.8899359197369476  1.0000
  O   O14       1.0  0.6737257857147718  0.8582280139278714  0.11006408055074723  1.0000
  O   O15       1.0  0.4368181655670825  0.16449070640466562  0.08209362191439815  1.0000
  O   O16       1.0  0.5631818353153903  0.835509294187192  0.9179063779166183  1.0000
  O   O17       1.0  0.21174983838800931  0.8352678267853799  0.7398912930501993  1.0000
  O   O18       1.0  0.7882501624360757  0.16473217292897724  0.2601087074211199  1.0000
  O   O19       1.0  0.4782386441484474  0.6861251714256853  0.11738441084532172  1.0000
  O   O20       1.0  0.5217613567340253  0.3138748291661724  0.8826155889856947  1.0000
