data_image0
_chemical_formula_structural       H14C18N4O2I2
_chemical_formula_sum              "H14 C18 N4 O2 I2"
_cell_length_a       5.015517595182366
_cell_length_b       7.466274158643968
_cell_length_c       13.753643720476255
_cell_angle_alpha    72.79246737041623
_cell_angle_beta     88.76426882743206
_cell_angle_gamma    73.76644898284474

_space_group_name_H-M_alt    "P 1"
_space_group_IT_number       1

loop_
  _space_group_symop_operation_xyz
  'x, y, z'

loop_
  _atom_site_type_symbol
  _atom_site_label
  _atom_site_symmetry_multiplicity
  _atom_site_fract_x
  _atom_site_fract_y
  _atom_site_fract_z
  _atom_site_occupancy
  H   H1        1.0  0.6990031438168918  0.8865558190627757  0.13450518980177978  1.0000
  H   H2        1.0  0.3009968568443825  0.11344418051317327  0.865494810050931  1.0000
  H   H3        1.0  0.7907819379922741  0.541877660767348  0.45106966049305447  1.0000
  H   H4        1.0  0.20921806266899992  0.4581223388086011  0.5489303393596563  1.0000
  H   H5        1.0  0.5366488058897833  0.3340606746893906  0.40259837006877336  1.0000
  H   H6        1.0  0.4633511942149347  0.6659393262876221  0.5974016297729696  1.0000
  H   H7        1.0  0.15219242275263095  0.7963454463471769  0.3168317758677494  1.0000
  H   H8        1.0  0.8478075753511971  0.20365455464702859  0.6831682239756152  1.0000
  H   H9        1.0  0.8807312500205707  0.9979402133059805  0.24774832018294193  1.0000
  H   H10       1.0  0.11926875064070343  0.002059786269968653  0.7522516796697689  1.0000
  H   H11       1.0  0.4513393183440404  0.6653378403034684  0.09835586620386476  1.0000
  H   H12       1.0  0.5486606824522298  0.3346621588507733  0.9016441344116116  1.0000
  H   H13       1.0  0.6656106676713159  0.9410802220208446  0.4299111116899284  1.0000
  H   H14       1.0  0.3343893331249542  0.05891977713339686  0.570088888925548  1.0000
  C   C1        1.0  0.04089599724117296  0.052451545850536935  0.026129431819116127  1.0000
  C   C2        1.0  0.9591040015542075  0.9475484533208973  0.9738705687979817  1.0000
  C   C3        1.0  0.11471846619060469  0.14950875414419101  0.07307547144769817  1.0000
  C   C4        1.0  0.8852815324697798  0.8504912454489507  0.9269245284066341  1.0000
  C   C5        1.0  0.6697761330782365  0.7646903378555742  0.196040231518341  1.0000
  C   C6        1.0  0.3302238675830379  0.2353096617203749  0.8039597683343698  1.0000
  C   C7        1.0  0.7219812026786799  0.5735788637613997  0.37155999364670156  1.0000
  C   C8        1.0  0.2780187959817045  0.4264211358317421  0.6284400062076309  1.0000
  C   C9        1.0  0.5786969383501429  0.4576381083913357  0.3449069867337295  1.0000
  C   C10       1.0  0.4213030617545751  0.5423618925856771  0.6550930131080136  1.0000
  C   C11       1.0  0.769707071508995  0.7317737377312782  0.29556882967817344  1.0000
  C   C12       1.0  0.2302929285957231  0.2682262632457344  0.7044311701635697  1.0000
  C   C13       1.0  0.9263647610270067  0.8647991834535083  0.31369488224322645  1.0000
  C   C14       1.0  0.07363523907771129  0.13520081752350432  0.6863051175985166  1.0000
  C   C15       1.0  0.5307124849997464  0.6415607040227279  0.17578110628299093  1.0000
  C   C16       1.0  0.4692875152399675  0.3584392965325774  0.8242188943215176  1.0000
  C   C17       1.0  0.054183396595280924  0.9650510682598404  0.4542693151636244  1.0000
  C   C18       1.0  0.9458166040659933  0.03494893131610865  0.5457306846890864  1.0000
  N   N1        1.0  0.483950765736097  0.49041077816714373  0.24856142332878917  1.0000
  N   N2        1.0  0.5160492349251772  0.5095892214088056  0.7514385765239215  1.0000
  N   N3        1.0  0.8660053604870795  0.9172699269731011  0.40697627408712594  1.0000
  N   N4        1.0  0.13399463761674849  0.08273007402110426  0.5930237257562386  1.0000
  O   O1        1.0  0.2969036158482191  0.9541502875601311  0.42911203155935795  1.0000
  O   O2        1.0  0.7030963842564989  0.04584971341688167  0.5708879682823851  1.0000
  I   I1        1.0  0.2570786823387689  0.2915162276363618  0.15472627324939323  1.0000
  I   I2        1.0  0.7429213183225053  0.7084837719395873  0.8452737266033175  1.0000
