data_image0
_chemical_formula_structural       H84C48N8O12I4
_chemical_formula_sum              "H84 C48 N8 O12 I4"
_cell_length_a       8.355020294531773
_cell_length_b       9.703917322100047
_cell_length_c       18.686361259063435
_cell_angle_alpha    90.0
_cell_angle_beta     99.4450920808894
_cell_angle_gamma    90.0

_space_group_name_H-M_alt    "P 1"
_space_group_IT_number       1

loop_
  _space_group_symop_operation_xyz
  'x, y, z'

loop_
  _atom_site_type_symbol
  _atom_site_label
  _atom_site_symmetry_multiplicity
  _atom_site_fract_x
  _atom_site_fract_y
  _atom_site_fract_z
  _atom_site_occupancy
  H   H1        1.0  0.27258284257416826  0.19819943391518632  0.4965369115600514  1.0000
  H   H2        1.0  0.22741715712999908  0.6981994338069801  0.0034630885034154005  1.0000
  H   H3        1.0  0.7274171578148242  0.8018005658684013  0.5034630880177957  1.0000
  H   H4        1.0  0.7725828422783356  0.30180056597660754  0.9965369116235183  1.0000
  H   H5        1.0  0.46111422329640644  0.07261583199963861  0.5961388928758243  1.0000
  H   H6        1.0  0.03888577613791483  0.5726158318914325  0.9038611070024914  1.0000
  H   H7        1.0  0.5388857761119283  0.927384167783949  0.4038611072511094  1.0000
  H   H8        1.0  0.9611142232704201  0.4273841678921552  0.0961388931244425  1.0000
  H   H9        1.0  0.6168336875140162  0.2079495994266464  0.6968336572151721  1.0000
  H   H10       1.0  0.8831663125791436  0.7079495993184403  0.8031663424261418  1.0000
  H   H11       1.0  0.38316631287497616  0.7920504003569413  0.3031663423626749  1.0000
  H   H12       1.0  0.11683368682919124  0.29205040046514746  0.1968336577007919  1.0000
  H   H13       1.0  0.3912879745064179  0.5762743203988672  0.5952379441328647  1.0000
  H   H14       1.0  0.10871202492790341  0.07627432050707335  0.9047620557454511  1.0000
  H   H15       1.0  0.6087120249019169  0.4237256804152321  0.40476205599406906  1.0000
  H   H16       1.0  0.8912879754610891  0.923725680307026  0.09523794383239617  1.0000
  H   H17       1.0  0.14895110407594733  0.3853783730703393  0.45151995740186085  1.0000
  H   H18       1.0  0.35104889562822006  0.8853783729621333  0.048480042661606104  1.0000
  H   H19       1.0  0.8510488953323875  0.6146216267132484  0.548480042725073  1.0000
  H   H20       1.0  0.6489511037801147  0.11462162682145452  0.9515199574653277  1.0000
  H   H21       1.0  0.13381921906271535  0.5230789733172942  0.5139652954740423  1.0000
  H   H22       1.0  0.3661807803716059  0.0230789734255004  0.9860347044042733  1.0000
  H   H23       1.0  0.8661807803456194  0.4769210264662934  0.48603470465289145  1.0000
  H   H24       1.0  0.6338192188230213  0.9769210263580872  0.01396529518019672  1.0000
  H   H25       1.0  0.28538032729691454  0.5281259516018744  0.45670299748731924  1.0000
  H   H26       1.0  0.21461967360161815  0.02812595171008054  0.04329700256952483  1.0000
  H   H27       1.0  0.7146196733057856  0.47187404818171325  0.5432970026329917  1.0000
  H   H28       1.0  0.7853803267873743  0.9718740480735071  0.9567029970083223  1.0000
  H   H29       1.0  0.6072432999657981  0.5875612529194647  0.7003555216175041  1.0000
  H   H30       1.0  0.8927566989329966  0.08756125302767082  0.7996444780304328  1.0000
  H   H31       1.0  0.39275669922882916  0.4124387478946347  0.29964447796696586  1.0000
  H   H32       1.0  0.10724330026163063  0.9124387477864284  0.20035552155403716  1.0000
  H   H33       1.0  0.686041265775988  0.4397400151258219  0.7474621464348489  1.0000
  H   H34       1.0  0.8139587345308794  0.9397400150176157  0.752537853748929  1.0000
  H   H35       1.0  0.31395873482671205  0.5602599846577657  0.25253785368546205  1.0000
  H   H36       1.0  0.18604126607182064  0.060259984765971934  0.24746214637138195  1.0000
  H   H37       1.0  0.1620715286180392  0.966451280313506  0.5182073094124644  1.0000
  H   H38       1.0  0.33792847222435496  0.46645127939120057  0.9817926910016923  1.0000
  H   H39       1.0  0.8379284719846609  0.03354872050059327  0.48179269070784664  1.0000
  H   H40       1.0  0.6620715283783452  0.5335487203923871  0.018207309118618637  1.0000
  H   H41       1.0  0.2795810737317604  0.8118416108161043  0.523171514944875  1.0000
  H   H42       1.0  0.22041892689692613  0.3118416109243105  0.9768284849268178  1.0000
  H   H43       1.0  0.7204189266572321  0.18815838896748333  0.47682848463297217  1.0000
  H   H44       1.0  0.7795810737057739  0.6881583888592772  0.023171515193493086  1.0000
  H   H45       1.0  0.20577706885985356  0.7656399867586794  0.4015247119354781  1.0000
  H   H46       1.0  0.2942229308443138  0.26563998686688556  0.09847528812798878  1.0000
  H   H47       1.0  0.7942229305484813  0.23436001302490825  0.5984752881914556  1.0000
  H   H48       1.0  0.705777068564021  0.734360012916702  0.9015247119989449  1.0000
  H   H49       1.0  0.08326686446910442  0.9156937662445994  0.38450762360311247  1.0000
  H   H50       1.0  0.41673313523506295  0.4156937663528056  0.1154923764603544  1.0000
  H   H51       1.0  0.9167331349392304  0.08430623353898825  0.6154923765238213  1.0000
  H   H52       1.0  0.5832668651539294  0.584306233430782  0.8845076231174926  1.0000
  H   H53       1.0  0.8378243307741299  0.760153662191718  0.3487906147025478  1.0000
  H   H54       1.0  0.6621756695888761  0.26015366229992415  0.15120938512391743  1.0000
  H   H55       1.0  0.16217566961486263  0.23984633759186968  0.6512093848752993  1.0000
  H   H56       1.0  0.3378243310138238  0.7398463374836635  0.8487906149963934  1.0000
  H   H57       1.0  0.9888267567827533  0.7549701957285974  0.29089099144597  1.0000
  H   H58       1.0  0.5111732423858875  0.2549701958368036  0.2091090083871181  1.0000
  H   H59       1.0  0.011173242411873832  0.2450298040549902  0.7091090081384999  1.0000
  H   H60       1.0  0.4888267570224473  0.7450298039467841  0.7908909917398157  1.0000
  H   H61       1.0  0.924165501395173  0.5290811761459757  0.24883699053734556  1.0000
  H   H62       1.0  0.575834498967833  0.029081176254181867  0.25116300928911967  1.0000
  H   H63       1.0  0.07583449920752708  0.47091882363761195  0.7511630095829653  1.0000
  H   H64       1.0  0.42416550044050166  0.9709188235294057  0.7488369908378141  1.0000
  H   H65       1.0  0.7586141113110801  0.5284095999377616  0.29869498793894544  1.0000
  H   H66       1.0  0.7413858892656335  0.02840960004596767  0.20130501242998358  1.0000
  H   H67       1.0  0.24138588929161994  0.4715903998458262  0.7013050121813655  1.0000
  H   H68       1.0  0.2586141113370666  0.9715903997376201  0.7986949876903273  1.0000
  H   H69       1.0  0.8523519394963844  0.29356673139744927  0.27162576920346615  1.0000
  H   H70       1.0  0.6476480610803291  0.793566731289243  0.22837423116546288  1.0000
  H   H71       1.0  0.14764806110631565  0.7064332694166501  0.7283742309168448  1.0000
  H   H72       1.0  0.3523519395223709  0.20643326952485624  0.771625768954848  1.0000
  H   H73       1.0  0.04944757339348294  0.3290696431149043  0.32200569285360625  1.0000
  H   H74       1.0  0.4505524263106845  0.829069643006698  0.17799430720986065  1.0000
  H   H75       1.0  0.9505524260148519  0.6709303566686834  0.6779943072733274  1.0000
  H   H76       1.0  0.5494475730976504  0.17093035677688959  0.822005692917073  1.0000
  H   H77       1.0  0.19559350540696546  0.8881372237552072  0.6404692652580729  1.0000
  H   H78       1.0  0.3044064940273558  0.38813722386341326  0.8595307346202428  1.0000
  H   H79       1.0  0.8044064937876617  0.11186277602838056  0.359530734326397  1.0000
  H   H80       1.0  0.695593505380979  0.6118627759201744  0.14046926550669106  1.0000
  H   H81       1.0  0.9878291161612726  0.8556627415909462  0.6019902130836084  1.0000
  H   H82       1.0  0.5121708829512296  0.3556627416991524  0.898009787106792  1.0000
  H   H83       1.0  0.01217088324706218  0.1443372581926414  0.39800978704332524  1.0000
  H   H84       1.0  0.48782911645710514  0.6443372580844353  0.10199021302014162  1.0000
  C   C1        1.0  0.3436837246798655  0.25046293051825136  0.542216789429046  1.0000
  C   C2        1.0  0.15631627475445575  0.7504629314405569  0.9577832104492697  1.0000
  C   C3        1.0  0.6563162747284693  0.7495370692653363  0.45778321069788774  1.0000
  C   C4        1.0  0.8436837244401715  0.24953706937354245  0.042216789135200355  1.0000
  C   C5        1.0  0.44752630655005077  0.18438740774563583  0.5973329828187126  1.0000
  C   C6        1.0  0.05247369429234328  0.6843874076374297  0.9026670175954439  1.0000
  C   C7        1.0  0.5524736940526493  0.8156125920379518  0.40266701730159826  1.0000
  C   C8        1.0  0.9475263063103566  0.315612592146158  0.09733298252486695  1.0000
  C   C9        1.0  0.5354906061717667  0.2594785638028378  0.6534367340327965  1.0000
  C   C10       1.0  0.9645093927270278  0.7594785636946316  0.8465632656151404  1.0000
  C   C11       1.0  0.46450939302286043  0.7405214359807498  0.34656326555167344  1.0000
  C   C12       1.0  0.03549060668130696  0.24052143608895607  0.1534367345117934  1.0000
  C   C13       1.0  0.5206287631090691  0.4048175308597811  0.654832378902573  1.0000
  C   C14       1.0  0.9793712371977982  0.9048175317820867  0.8451676212812047  1.0000
  C   C15       1.0  0.4793712362992657  0.5951824689238066  0.3451676212243608  1.0000
  C   C16       1.0  0.020628763404901707  0.09518246903201277  0.15483237883910608  1.0000
  C   C17       1.0  0.41421899128982126  0.4659091962483424  0.5973890378344662  1.0000
  C   C18       1.0  0.08578100933886525  0.9659091971706478  0.9026109620372267  1.0000
  C   C19       1.0  0.5857810093128788  0.5340908035352453  0.4026109622858448  1.0000
  C   C20       1.0  0.9142189912638349  0.034090803643451455  0.09738903808308427  1.0000
  C   C21       1.0  0.216497635211115  0.46094778959142946  0.4875754404749592  1.0000
  C   C22       1.0  0.28350236449305233  0.9609477894832232  0.01242455958850766  1.0000
  C   C23       1.0  0.7835023641972197  0.5390522112226699  0.5124245596519745  1.0000
  C   C24       1.0  0.7164976347015749  0.0390522103003644  0.9875754399959623  1.0000
  C   C25       1.0  0.11487819157591365  0.8254663188192212  0.6000709143153639  1.0000
  C   C26       1.0  0.38512180926648043  0.3254663189274273  0.8999290860987927  1.0000
  C   C27       1.0  0.8851218090267864  0.17453368096436656  0.399929085804947  1.0000
  C   C28       1.0  0.6148781913362196  0.6745336808561604  0.10007091402151821  1.0000
  C   C29       1.0  0.15742544376776585  0.8535331892345039  0.5260277133947842  1.0000
  C   C30       1.0  0.3425745568609206  0.35353318934271005  0.9739722864769086  1.0000
  C   C31       1.0  0.8425745568349341  0.14646681054908378  0.47397228672552666  1.0000
  C   C32       1.0  0.6574254435280719  0.6464668104408776  0.026027713100938547  1.0000
  C   C33       1.0  0.08201422413097326  0.8061312262197928  0.40101679852065536  1.0000
  C   C34       1.0  0.41798577557319416  0.30613122632799905  0.09898320154281157  1.0000
  C   C35       1.0  0.9179857750636541  0.19386877356379478  0.5989832010638146  1.0000
  C   C36       1.0  0.5820142238351406  0.6938687734555886  0.9010167985841222  1.0000
  C   C37       1.0  0.9639394204524233  0.7286661639105728  0.3456484545534758  1.0000
  C   C38       1.0  0.5360605787162176  0.2286661629882673  0.15435154527961223  1.0000
  C   C39       1.0  0.036060578955911575  0.2713338369035265  0.6543515455734579  1.0000
  C   C40       1.0  0.46393942069211713  0.7713338367953203  0.8456484548473214  1.0000
  C   C41       1.0  0.8891681168114891  0.5045387215789309  0.3020387094892462  1.0000
  C   C42       1.0  0.6108318835515169  0.0045387206566253465  0.19796129033721901  1.0000
  C   C43       1.0  0.11083188379121095  0.49546127923516853  0.6979612906310647  1.0000
  C   C44       1.0  0.3891681168374756  0.9954612791269623  0.8020387092406281  1.0000
  C   C45       1.0  0.9187843967340835  0.353478789662408  0.3175613570297764  1.0000
  C   C46       1.0  0.5812156038426302  0.8534787895542018  0.18243864333915266  1.0000
  C   C47       1.0  0.08121560386861648  0.6465212111516914  0.6824386430905345  1.0000
  C   C48       1.0  0.41878439676006995  0.14652121125989753  0.8175613567811583  1.0000
  N   N1        1.0  0.32961232171736604  0.3889674267322746  0.5440438629777409  1.0000
  N   N2        1.0  0.17038767771695512  0.8889674266240685  0.9559561369005747  1.0000
  N   N3        1.0  0.6703876774772611  0.6110325730513131  0.45595613660672907  1.0000
  N   N4        1.0  0.8296123228857448  0.1110325731595193  0.044043863219736155  1.0000
  N   N5        1.0  0.5983718651641087  0.4837170097595361  0.7093913800047141  1.0000
  N   N6        1.0  0.9016281349290511  0.9837170096513299  0.7906086196365998  1.0000
  N   N7        1.0  0.4016281352248838  0.5162829900240516  0.29060861957313294  1.0000
  N   N8        1.0  0.09837186567364886  0.01628299013225774  0.20939138048371111  1.0000
  O   O1        1.0  0.03860458320457011  0.7929439312591732  0.4714638234495906  1.0000
  O   O2        1.0  0.4613954164995973  0.29294393136737934  0.02853617661387629  1.0000
  O   O3        1.0  0.9613954162037646  0.2070560685244145  0.5285361766773431  1.0000
  O   O4        1.0  0.5386045829087374  0.7070560684162083  0.9714638235130574  1.0000
  O   O5        1.0  0.9835756429898315  0.5840844508322125  0.3579088574037806  1.0000
  O   O6        1.0  0.5164243563925167  0.08408445094041864  0.14209114297177133  1.0000
  O   O7        1.0  0.016424356418503226  0.4159155489513752  0.6420911427231532  1.0000
  O   O8        1.0  0.48357564301581807  0.9159155488431691  0.8579088571551625  1.0000
  O   O9        1.0  0.8633632170401486  0.3175739783954672  0.38345233112808724  1.0000
  O   O10       1.0  0.636636783536565  0.8175739793177726  0.11654766924084185  1.0000
  O   O11       1.0  0.13663678356255146  0.6824260213881206  0.6165476689922237  1.0000
  O   O12       1.0  0.36336321706613506  0.18242602149632667  0.8834523308794691  1.0000
  I   I1        1.0  0.8768280730276394  0.3305423329086903  0.852737689933721  1.0000
  I   I2        1.0  0.6231719272792279  0.8305423338309957  0.6472623102500568  1.0000
  I   I3        1.0  0.12317192757506058  0.6694576668748975  0.14726231018658995  1.0000
  I   I4        1.0  0.3768280721291068  0.16945766698310358  0.352737689876877  1.0000
