data_image0
_chemical_formula_structural       H48C82N18
_chemical_formula_sum              "H48 C82 N18"
_cell_length_a       7.553533543351402
_cell_length_b       14.432060917549203
_cell_length_c       15.760872378128813
_cell_angle_alpha    112.19394504258851
_cell_angle_beta     91.25348071645774
_cell_angle_gamma    92.09812046452643

_space_group_name_H-M_alt    "P 1"
_space_group_IT_number       1

loop_
  _space_group_symop_operation_xyz
  'x, y, z'

loop_
  _atom_site_type_symbol
  _atom_site_label
  _atom_site_symmetry_multiplicity
  _atom_site_fract_x
  _atom_site_fract_y
  _atom_site_fract_z
  _atom_site_occupancy
  H   H1        1.0  0.7739568621531505  0.4023761231946823  0.1775155863202053  1.0000
  H   H2        1.0  0.22604313829034817  0.5976238764682681  0.8224844134679877  1.0000
  H   H3        1.0  0.6059113346959313  0.3006044992432098  0.9024238135698919  1.0000
  H   H4        1.0  0.3940886657475676  0.6993955004197406  0.09757618621830126  1.0000
  H   H5        1.0  0.7914593990311173  0.6486516764120287  0.977928595853306  1.0000
  H   H6        1.0  0.20854060008375033  0.3513483232470306  0.02207140455211668  1.0000
  H   H7        1.0  0.6739324617923648  0.4671650932208685  0.8948377030709938  1.0000
  H   H8        1.0  0.3260675387093201  0.532834907191301  0.10516229697733373  1.0000
  H   H9        1.0  0.968681408090982  0.7460923414080627  0.261778688241857  1.0000
  H   H10       1.0  0.03131859241070289  0.2539076590041068  0.7382213118064707  1.0000
  H   H11       1.0  0.898958963336062  0.5766746419028462  0.2611086048502117  1.0000
  H   H12       1.0  0.10104103716562295  0.42332535850932324  0.7388913951981159  1.0000
  H   H13       1.0  0.6214891853927276  0.2538894263396133  0.10955426237749093  1.0000
  H   H14       1.0  0.37851081372629597  0.7461105733198975  0.8904457373936521  1.0000
  H   H15       1.0  0.5403674142490965  0.21219410513950832  0.9941173635644007  1.0000
  H   H16       1.0  0.4596325862525884  0.7878058952726611  0.005882636483926841  1.0000
  H   H17       1.0  0.9795180595691613  0.26571057641134344  0.1299735643680268  1.0000
  H   H18       1.0  0.02048194087433761  0.734289423251607  0.8700264354201662  1.0000
  H   H19       1.0  0.9547304382517986  0.9874662637571834  0.824928787850581  1.0000
  H   H20       1.0  0.04526956224988629  0.012533736654986126  0.17507121219774655  1.0000
  H   H21       1.0  0.6885323903812305  0.08488128502575883  0.8805672199530854  1.0000
  H   H22       1.0  0.3114676100622684  0.9151187146371916  0.1194327798351076  1.0000
  H   H23       1.0  0.9158458415818029  0.7816674952240171  0.12080399664951826  1.0000
  H   H24       1.0  0.08415415891988197  0.2183325051881525  0.8791960033988094  1.0000
  H   H25       1.0  0.24300036708570932  0.16799642798445688  0.07447785983492121  1.0000
  H   H26       1.0  0.7569996333577896  0.8320035716784935  0.9255221399532718  1.0000
  H   H27       1.0  0.35377004985254884  0.04463292298927169  0.8665033728629286  1.0000
  H   H28       1.0  0.64622995059095  0.9553670766736787  0.1334966269252646  1.0000
  H   H29       1.0  0.24414386920280426  0.9345890622618408  0.8674670576667237  1.0000
  H   H30       1.0  0.7558561312406944  0.06541093740110955  0.13253294212146927  1.0000
  H   H31       1.0  0.36919667230688724  0.015198660126014611  0.9661305997511301  1.0000
  H   H32       1.0  0.6308033281324557  0.9848013395364843  0.033869400671342635  1.0000
  H   H33       1.0  0.7594985960865368  0.34314676630149743  0.4363437277614999  1.0000
  H   H34       1.0  0.24050140303248685  0.6568532333580134  0.5636562720096431  1.0000
  H   H35       1.0  0.29480689726247195  0.3909829036897594  0.6037938138617762  1.0000
  H   H36       1.0  0.7051931019147377  0.6090170967189704  0.39620618616950126  1.0000
  H   H37       1.0  0.11786699814439876  0.4097626032374096  0.4811949352196416  1.0000
  H   H38       1.0  0.8821330022991001  0.5902373964255407  0.5188050645685515  1.0000
  H   H39       1.0  0.5841744829363026  0.36640155027186616  0.3156534714489483  1.0000
  H   H40       1.0  0.4158255175071962  0.633598449391084  0.6843465283392447  1.0000
  H   H41       1.0  0.32130184752440766  0.14836216790812412  0.6246143367007165  1.0000
  H   H42       1.0  0.678698151652802  0.851637832500606  0.375385663330561  1.0000
  H   H43       1.0  0.1590231989054082  0.16875741541178602  0.49769473341445586  1.0000
  H   H44       1.0  0.8409768015380906  0.8312425842511644  0.5023052663737372  1.0000
  H   H45       1.0  0.7988637366385448  0.08904536471245011  0.4655828021396641  1.0000
  H   H46       1.0  0.20113626248047883  0.9109546349470607  0.5344171976314789  1.0000
  H   H47       1.0  0.6379464472063273  0.11177469258237625  0.3394851094005952  1.0000
  H   H48       1.0  0.3620535532371716  0.8882253070805741  0.6605148903875978  1.0000
  C   C1        1.0  0.6635262481817553  0.36376437465806716  0.9607732136042327  1.0000
  C   C2        1.0  0.33647375226174336  0.6362356250048831  0.03922678618396023  1.0000
  C   C3        1.0  0.7032283404700053  0.45587495371624404  0.9581107585013379  1.0000
  C   C4        1.0  0.29677166003167954  0.5441250466959254  0.04188924154698962  1.0000
  C   C5        1.0  0.776545039302785  0.5353138020024073  0.03670598064411326  1.0000
  C   C6        1.0  0.22345496114071386  0.4646861976605431  0.9632940191440797  1.0000
  C   C7        1.0  0.8173845609833659  0.6327176695094726  0.039137134389996824  1.0000
  C   C8        1.0  0.18261543951831907  0.367282330902697  0.9608628656583308  1.0000
  C   C9        1.0  0.8860356646973235  0.706507573415244  0.11912157473920952  1.0000
  C   C10       1.0  0.11396433441754411  0.29349242624381555  0.8808784256662131  1.0000
  C   C11       1.0  0.9170340390430779  0.6862103827854917  0.19919800945755872  1.0000
  C   C12       1.0  0.08296596007594559  0.3137896168740191  0.8008019903135842  1.0000
  C   C13       1.0  0.8781616531665781  0.5923618844433699  0.199355397407735  1.0000
  C   C14       1.0  0.12183834727692076  0.4076381152195805  0.8006446023804581  1.0000
  C   C15       1.0  0.8066315878090378  0.5156057182236273  0.11833316459317625  1.0000
  C   C16       1.0  0.1933684113681719  0.4843942821851026  0.8816668354381013  1.0000
  C   C17       1.0  0.7592044886722513  0.4200429063611172  0.11651121901332087  1.0000
  C   C18       1.0  0.24079551050080245  0.5799570940471613  0.8834887816522364  1.0000
  C   C19       1.0  0.6565072109328685  0.2451788714352668  0.039941197112619245  1.0000
  C   C20       1.0  0.3434927895106303  0.7548211282276837  0.9600588026755739  1.0000
  C   C21       1.0  0.8158486262338887  0.18297513100032164  0.008243613978561042  1.0000
  C   C22       1.0  0.18415137426779626  0.8170248694118478  0.9917563860697665  1.0000
  C   C23       1.0  0.9729766517423883  0.20508728380071234  0.06242262957093112  1.0000
  C   C24       1.0  0.027023347376635323  0.7949127158587984  0.9375773702002118  1.0000
  C   C25       1.0  0.1223405759727769  0.1501421415798818  0.03102689937226955  1.0000
  C   C26       1.0  0.8776594231462466  0.849857858079629  0.9689731003988733  1.0000
  C   C27       1.0  0.11874647563653075  0.07133247932055166  0.9448288099769399  1.0000
  C   C28       1.0  0.8812535248069682  0.9286675203423989  0.05517118981125317  1.0000
  C   C29       1.0  0.9601415127234045  0.04881638397956706  0.8918491335637357  1.0000
  C   C30       1.0  0.03985848645380507  0.9511836164291629  0.10815086646754186  1.0000
  C   C31       1.0  0.8104553454956965  0.10359104681605892  0.9229028635807296  1.0000
  C   C32       1.0  0.18954465368151316  0.8964089535926709  0.07709713645054783  1.0000
  C   C33       1.0  0.27981108932697907  0.013205258532600907  0.9096712849945713  1.0000
  C   C34       1.0  0.7201889098502308  0.9867947418761291  0.09032871503670627  1.0000
  C   C35       1.0  0.33638989647099315  0.3893385526775317  0.3880326504499558  1.0000
  C   C36       1.0  0.6636101027062166  0.6106614477311982  0.6119673495813217  1.0000
  C   C37       1.0  0.5205026280878566  0.3705963979379913  0.3781817720727704  1.0000
  C   C38       1.0  0.47949737241382817  0.6294036024741781  0.6218182279755572  1.0000
  C   C39       1.0  0.6197180187881163  0.3587107396659638  0.44659733388819456  1.0000
  C   C40       1.0  0.3802819817135686  0.6412892607462057  0.553402666160133  1.0000
  C   C41       1.0  0.5420165165764651  0.3666530119518402  0.5307184057618511  1.0000
  C   C42       1.0  0.45798348253840254  0.6333469877072191  0.46928159464357155  1.0000
  C   C43       1.0  0.35779430198508866  0.38537724041545035  0.5406932172436676  1.0000
  C   C44       1.0  0.6422056985165963  0.6146227599967191  0.4593067828046601  1.0000
  C   C45       1.0  0.25836700542684804  0.39605990597092855  0.47165819769320766  1.0000
  C   C46       1.0  0.7416329936921755  0.6039400936885823  0.5283418020779354  1.0000
  C   C47       1.0  0.23562625363800974  0.4010467252642731  0.31598369795772485  1.0000
  C   C48       1.0  0.764373746805489  0.5989532743986772  0.6840163018304681  1.0000
  C   C49       1.0  0.3110065401212739  0.3940474325519679  0.23291992065493006  1.0000
  C   C50       1.0  0.6889934590559358  0.6059525678567621  0.7670800793763475  1.0000
  C   C51       1.0  0.052872992065124226  0.41722562668485813  0.3204335867028053  1.0000
  C   C52       1.0  0.9471270071120854  0.5827743737238718  0.6795664133284722  1.0000
  C   C53       1.0  0.6449963943643228  0.3552164060413274  0.6018266027431948  1.0000
  C   C54       1.0  0.35500360613736215  0.6447835943708422  0.3981733973051329  1.0000
  C   C55       1.0  0.8249597836571747  0.3319061916575173  0.5913211887591346  1.0000
  C   C56       1.0  0.17504021684451015  0.6680938087546523  0.40867881128919303  1.0000
  C   C57       1.0  0.5754148434549937  0.36149983309603667  0.6860854281379434  1.0000
  C   C58       1.0  0.42458515698850513  0.6385001665669137  0.3139145716502497  1.0000
  C   C59       1.0  0.38440919140979907  0.13971628173302936  0.40760282680492016  1.0000
  C   C60       1.0  0.6155908090918858  0.8602837186791401  0.5923971732434075  1.0000
  C   C61       1.0  0.5688708860059979  0.11833084139862445  0.4013270408941943  1.0000
  C   C62       1.0  0.43112911311302576  0.8816691582608863  0.5986729588769486  1.0000
  C   C63       1.0  0.6594627000733042  0.1067205880731566  0.4722950386229046  1.0000
  C   C64       1.0  0.3405373003701946  0.8932794115897936  0.5277049611652884  1.0000
  C   C65       1.0  0.5732787758550011  0.11793817524172576  0.5555815466463009  1.0000
  C   C66       1.0  0.4267212233222085  0.8820618251670043  0.44441845338497665  1.0000
  C   C67       1.0  0.38917601568688076  0.13993954774100476  0.5620066844710538  1.0000
  C   C68       1.0  0.6108239847524621  0.860060451921494  0.43799331595141905  1.0000
  C   C69       1.0  0.29796510242911184  0.15024434879384452  0.4907035498022695  1.0000
  C   C70       1.0  0.7020348980143869  0.8497556508691059  0.5092964499859236  1.0000
  C   C71       1.0  0.29063302626052073  0.15133263926019505  0.3344333270986835  1.0000
  C   C72       1.0  0.709366974182978  0.8486673604027554  0.6655666726895096  1.0000
  C   C73       1.0  0.37416374111340595  0.1484342829754503  0.2539875987270404  1.0000
  C   C74       1.0  0.6258362593300928  0.8515657166875  0.7460124010611526  1.0000
  C   C75       1.0  0.10725513261259216  0.1691497616073837  0.337141725589392  1.0000
  C   C76       1.0  0.8927448678309066  0.8308502380555666  0.6628582741988011  1.0000
  C   C77       1.0  0.6658800075250146  0.10768806733438102  0.6299576212314179  1.0000
  C   C78       1.0  0.33411999291432815  0.8923119323281178  0.3700423791910549  1.0000
  C   C79       1.0  0.8462310925163369  0.08377905216427776  0.6262660446885513  1.0000
  C   C80       1.0  0.15376890660268666  0.9162209474952332  0.37373395508259166  1.0000
  C   C81       1.0  0.5817589918048538  0.12173741917207162  0.7128926535186956  1.0000
  C   C82       1.0  0.4182410073141697  0.8782625804874392  0.2871073462524474  1.0000
  N   N1        1.0  0.6922950121387639  0.3473360145450591  0.04027189741887323  1.0000
  N   N2        1.0  0.3077049869761038  0.6526639851140003  0.9597281029865495  1.0000
  N   N3        1.0  0.3707963446656062  0.3888973023759322  0.16337167522636883  1.0000
  N   N4        1.0  0.6292036544534174  0.6111026972835788  0.8366283245447741  1.0000
  N   N5        1.0  0.9008200783614349  0.4310420489721024  0.3207035492843355  1.0000
  N   N6        1.0  0.09917992208206401  0.568957950690848  0.6792964505038576  1.0000
  N   N7        1.0  0.9738214095722493  0.3111675297256465  0.583425340138407  1.0000
  N   N8        1.0  0.026178589604960258  0.6888324706830833  0.41657465989287046  1.0000
  N   N9        1.0  0.5231267140332201  0.3651551429185155  0.7566551899869488  1.0000
  N   N10       1.0  0.4768732864684649  0.634844857493654  0.24334481006137879  1.0000
  N   N11       1.0  0.4405003864835281  0.14900620580035054  0.18775876840304653  1.0000
  N   N12       1.0  0.5594996139558147  0.8509937938621482  0.8122412320194262  1.0000
  N   N13       1.0  0.9557306366858856  0.18364770586690551  0.3374139597998046  1.0000
  N   N14       1.0  0.04426936243313789  0.8163522937926053  0.6625860399713384  1.0000
  N   N15       1.0  0.9954179972148707  0.06370724704243665  0.6239320886855155  1.0000
  N   N16       1.0  0.004582003228628074  0.9362927526205138  0.3760679111026776  1.0000
  N   N17       1.0  0.5115142671948032  0.13395347976241975  0.7815454718330677  1.0000
  N   N18       1.0  0.48848573198240636  0.8660465206463104  0.21845452819820987  1.0000
