data_image0
_chemical_formula_structural       H44B4C52N4O8F4
_chemical_formula_sum              "H44 B4 C52 N4 O8 F4"
_cell_length_a       14.263117267772744
_cell_length_b       5.848121698658174
_cell_length_c       14.155525462689681
_cell_angle_alpha    90.0
_cell_angle_beta     108.32982828769292
_cell_angle_gamma    90.0

_space_group_name_H-M_alt    "P 1"
_space_group_IT_number       1

loop_
  _space_group_symop_operation_xyz
  'x, y, z'

loop_
  _atom_site_type_symbol
  _atom_site_label
  _atom_site_symmetry_multiplicity
  _atom_site_fract_x
  _atom_site_fract_y
  _atom_site_fract_z
  _atom_site_occupancy
  H   H1        1.0  0.18617678361515594  0.9707787803565402  0.4648508774825628  1.0000
  H   H2        1.0  0.8138232164451813  0.47077878024181735  0.035149122131566804  1.0000
  H   H3        1.0  0.813823216244083  0.029221219872905484  0.5351491222087934  1.0000
  H   H4        1.0  0.18617678341405763  0.5292212199876284  0.9648508775597894  1.0000
  H   H5        1.0  0.298926490946035  0.8966238529548921  0.7858999355395949  1.0000
  H   H6        1.0  0.7010735087121056  0.3966238528401692  0.7141000642289878  1.0000
  H   H7        1.0  0.7010735089132039  0.10337614727455362  0.21410006415176125  1.0000
  H   H8        1.0  0.2989264911471333  0.6033761473892765  0.28589993546236836  1.0000
  H   H9        1.0  0.4099409965004046  0.40679915750485385  0.5302821164832408  1.0000
  H   H10       1.0  0.590059003157736  0.9067991576195767  0.9697178832853419  1.0000
  H   H11       1.0  0.5900590033588343  0.5932008427245918  0.4697178832081154  1.0000
  H   H12       1.0  0.40994099670150297  0.09320084260986898  0.030282116406014203  1.0000
  H   H13       1.0  0.3030025628311904  0.2464241587740314  0.5296639820286868  1.0000
  H   H14       1.0  0.6969974368269501  0.7464241588887542  0.970336017739896  1.0000
  H   H15       1.0  0.6969974372618702  0.7535758414554143  0.4703360184068646  1.0000
  H   H16       1.0  0.3030025630322888  0.25357584134069144  0.029663981951460246  1.0000
  H   H17       1.0  0.45147796017927255  0.15725213622196083  0.7305101655153466  1.0000
  H   H18       1.0  0.5485220401794627  0.6572521363366837  0.7694898342515932  1.0000
  H   H19       1.0  0.5485220396799664  0.8427478640074849  0.2694898341760095  1.0000
  H   H20       1.0  0.4514779596797764  0.342747863892762  0.23051016543976294  1.0000
  H   H21       1.0  0.39481269045467027  0.6570775076178192  0.929667485975122  1.0000
  H   H22       1.0  0.6051873094372922  0.15707750750309638  0.5703325145376559  1.0000
  H   H23       1.0  0.6051873096383905  0.34292249261162644  0.0703325144604293  1.0000
  H   H24       1.0  0.3948126906557686  0.8429224927263493  0.42966748589789555  1.0000
  H   H25       1.0  0.06783503216076955  0.2050153026526611  0.9979343306623287  1.0000
  H   H26       1.0  0.9321649677311928  0.7050153027673839  0.5020656698504492  1.0000
  H   H27       1.0  0.9321649679322912  0.7949846975767846  0.0020656697732226617  1.0000
  H   H28       1.0  0.06783503236186782  0.29498469746206174  0.49793433058510217  1.0000
  H   H29       1.0  0.15524855264308435  0.3652771864323786  0.1578191499187279  1.0000
  H   H30       1.0  0.8447514476510748  0.8652771865471014  0.342180850439597  1.0000
  H   H31       1.0  0.8447514472161546  0.6347228137970671  0.8421808497726282  1.0000
  H   H32       1.0  0.15524855244198604  0.13472281368234432  0.6578191499959545  1.0000
  H   H33       1.0  0.21136086202961077  0.33409797379016604  0.3448394538721091  1.0000
  H   H34       1.0  0.7886391380307265  0.8340979739048889  0.15516054574202048  1.0000
  H   H35       1.0  0.7886391378296284  0.6659020264392796  0.6551605458192471  1.0000
  H   H36       1.0  0.2113608618285124  0.16590202632455678  0.8448394539493356  1.0000
  H   H37       1.0  0.022180213939110262  0.6979292600796081  0.14895038093887347  1.0000
  H   H38       1.0  0.977819786121227  0.19792925996488525  0.35104961867525614  1.0000
  H   H39       1.0  0.9778197859201287  0.3020707401498376  0.8510496187524826  1.0000
  H   H40       1.0  0.02218021373801199  0.8020707402645604  0.6489503810161001  1.0000
  H   H41       1.0  0.08960985356518589  0.6902739936014375  0.3335899109499569  1.0000
  H   H42       1.0  0.9103901464951514  0.19027399348671464  0.16641008866417273  1.0000
  H   H43       1.0  0.9103901469946476  0.3097260066280082  0.6664100887397565  1.0000
  H   H44       1.0  0.08960985336408757  0.809726006742731  0.8335899110271834  1.0000
  B   B1        1.0  0.26427639444792506  0.7508197838987293  0.568741280212294  1.0000
  B   B2        1.0  0.7357236059108102  0.2508197837840065  0.9312587195546459  1.0000
  B   B3        1.0  0.7357236054113139  0.24918021633071633  0.43125871947906225  1.0000
  B   B4        1.0  0.2642763939484288  0.7491802164454393  0.06874128013671023  1.0000
  C   C1        1.0  0.36346802651278187  0.45477191259720623  0.660733635992272  1.0000
  C   C2        1.0  0.6365319731453587  0.954771912711929  0.8392663637763107  1.0000
  C   C3        1.0  0.6365319735802788  0.5452280876322395  0.33926636444327946  1.0000
  C   C4        1.0  0.36346802671388023  0.04522808751751665  0.16073363591504544  1.0000
  C   C5        1.0  0.31975336719348063  0.6619321671927925  0.6753510874906297  1.0000
  C   C6        1.0  0.6802466333990764  0.16193216707806968  0.8246489130205056  1.0000
  C   C7        1.0  0.6802466328995801  0.33806783303665316  0.3246489129449219  1.0000
  C   C8        1.0  0.31975336669398435  0.8380678331513761  0.17535108741504585  1.0000
  C   C9        1.0  0.33172826938066624  0.7366979317459349  0.7723096035511589  1.0000
  C   C10       1.0  0.6682717312118908  0.23669793163121203  0.7276903969599763  1.0000
  C   C11       1.0  0.6682717307123945  0.26330206848351084  0.22769039688439252  1.0000
  C   C12       1.0  0.33172826888116996  0.7633020685982337  0.2723096034755752  1.0000
  C   C13       1.0  0.34228632783080576  0.4092666249659553  0.5518495217787802  1.0000
  C   C14       1.0  0.6577136725279296  0.9092666233707274  0.9481504779881598  1.0000
  C   C15       1.0  0.6577136722622551  0.5907333752634905  0.44815047865677127  1.0000
  C   C16       1.0  0.3422863273313094  0.09073337514876757  0.05184952170319644  1.0000
  C   C17       1.0  0.41743839649812936  0.3187274078834024  0.740005552089267  1.0000
  C   C18       1.0  0.5825616038606058  0.8187274079981254  0.7599944476776729  1.0000
  C   C19       1.0  0.5825616033611096  0.6812725923460433  0.25999444760208923  1.0000
  C   C20       1.0  0.4174383966992276  0.18127259223132042  0.24000555201204035  1.0000
  C   C21       1.0  0.42635471790747803  0.40049058153789596  0.8345965055364726  1.0000
  C   C22       1.0  0.5736452817506628  0.9004905816526187  0.6654034942321102  1.0000
  C   C23       1.0  0.5736452819517609  0.5995094186915497  0.16540349415488362  1.0000
  C   C24       1.0  0.4263547183423981  0.09950941857682688  0.3345965062034413  1.0000
  C   C25       1.0  0.38553326667769744  0.6051874041561167  0.8534629494413222  1.0000
  C   C26       1.0  0.6144667329804432  0.10518740404139387  0.6465370503272606  1.0000
  C   C27       1.0  0.6144667331815414  0.39481259607332897  0.146537050250034  1.0000
  C   C28       1.0  0.3855332668787958  0.8948125961880518  0.3534629493640956  1.0000
  C   C29       1.0  0.07901110861080425  0.038712778506635015  0.1373038461695316  1.0000
  C   C30       1.0  0.920988891449533  0.5387127786213579  0.362696153444598  1.0000
  C   C31       1.0  0.9209888912484347  0.9612872217228107  0.8626961535218246  1.0000
  C   C32       1.0  0.07901110840970596  0.4612872216080878  0.6373038462467582  1.0000
  C   C33       1.0  0.03689638452243644  0.06480120960665917  0.029736153606709212  1.0000
  C   C34       1.0  0.9631036155379008  0.564801209721382  0.47026384600742044  1.0000
  C   C35       1.0  0.9631036153368027  0.9351987906227864  0.970263846084647  1.0000
  C   C36       1.0  0.03689638432133813  0.4351987905080637  0.5297361536839358  1.0000
  C   C37       1.0  0.1368454389324192  0.2155567915574055  0.19450423363308963  1.0000
  C   C38       1.0  0.863154561127918  0.7155567916721284  0.30549576598103995  1.0000
  C   C39       1.0  0.8631545609268197  0.7844432086720402  0.8054957660582666  1.0000
  C   C40       1.0  0.13684543873132088  0.28444320855731736  0.6945042337103161  1.0000
  C   C41       1.0  0.16926168664107658  0.19733277442991418  0.29773711793927427  1.0000
  C   C42       1.0  0.830738312718666  0.6973327745446372  0.20226288167649817  1.0000
  C   C43       1.0  0.8307383132181623  0.8026672257995314  0.7022628817520818  1.0000
  C   C44       1.0  0.16926168714057285  0.3026672256848087  0.797737118014858  1.0000
  C   C45       1.0  0.06292570468679211  0.844360769908907  0.1886289054609315  1.0000
  C   C46       1.0  0.937074295607367  0.34436076979418406  0.3113710948973934  1.0000
  C   C47       1.0  0.9370742954062687  0.15563923032053878  0.81137109497462  1.0000
  C   C48       1.0  0.0629257044856938  0.6556392287253109  0.6886289055381581  1.0000
  C   C49       1.0  0.1000026308271064  0.8392129444101818  0.2916347414697654  1.0000
  C   C50       1.0  0.8999973692332308  0.33921294429545895  0.2083652581443642  1.0000
  C   C51       1.0  0.8999973690321326  0.16078705581926386  0.7083652582215909  1.0000
  C   C52       1.0  0.1000026306260081  0.6607870559339868  0.791634741546992  1.0000
  N   N1        1.0  0.15022466978658758  0.014139225252267303  0.3460577905036004  1.0000
  N   N2        1.0  0.8497753302737497  0.5141392253669901  0.1539422091105292  1.0000
  N   N3        1.0  0.8497753300726514  0.9858607749771785  0.6539422091877558  1.0000
  N   N4        1.0  0.15022466958548933  0.48586077486245555  0.8460577905808271  1.0000
  O   O1        1.0  0.27972715008159327  0.5944692021025613  0.5001205871144274  1.0000
  O   O2        1.0  0.7202728502771419  0.09446920198783847  0.9998794126525126  1.0000
  O   O3        1.0  0.7202728497776456  0.4055307964169337  0.4998794125769287  1.0000
  O   O4        1.0  0.27972714958209705  0.9055307965316565  0.00012058703884374859  1.0000
  O   O5        1.0  0.20887526682614285  0.9419169733187819  0.5404599813651043  1.0000
  O   O6        1.0  0.7911247328319979  0.441916973204059  0.9595400184034785  1.0000
  O   O7        1.0  0.791124733033096  0.05808302691066387  0.45954001832625185  1.0000
  O   O8        1.0  0.20887526702724116  0.558083025315436  0.04045998128787773  1.0000
  F   F1        1.0  0.47905278114945027  0.27095346192326547  0.9146756097256389  1.0000
  F   F2        1.0  0.5209472187425122  0.7709534620379884  0.585324390787139  1.0000
  F   F3        1.0  0.5209472189436105  0.7290465365962294  0.08532439070991249  1.0000
  F   F4        1.0  0.47905278135054863  0.22904653648150666  0.4146756096484124  1.0000
