data_image0
_chemical_formula_structural       H60B6C50N2O8
_chemical_formula_sum              "H60 B6 C50 N2 O8"
_cell_length_a       9.76577988475054
_cell_length_b       10.644892768453555
_cell_length_c       12.135012348597526
_cell_angle_alpha    91.29184991367758
_cell_angle_beta     101.23573234613681
_cell_angle_gamma    109.29346158484044

_space_group_name_H-M_alt    "P 1"
_space_group_IT_number       1

loop_
  _space_group_symop_operation_xyz
  'x, y, z'

loop_
  _atom_site_type_symbol
  _atom_site_label
  _atom_site_symmetry_multiplicity
  _atom_site_fract_x
  _atom_site_fract_y
  _atom_site_fract_z
  _atom_site_occupancy
  H   H1        1.0  0.4949795213144916  0.5459434499277913  0.15381430112797673  1.0000
  H   H2        1.0  0.5050204781155442  0.4540565502861835  0.8461856988465761  1.0000
  H   H3        1.0  0.46523554839121045  0.5142009127330913  0.36545818666333507  1.0000
  H   H4        1.0  0.5347644510388252  0.4857990874808835  0.6345418133112176  1.0000
  H   H5        1.0  0.28623139770457157  0.3994858221901489  0.48130564607447524  1.0000
  H   H6        1.0  0.7137686013669696  0.6005141770286927  0.5186943539017017  1.0000
  H   H7        1.0  0.19158809517237657  0.15159420610127045  0.4720830268708584  1.0000
  H   H8        1.0  0.8084119052808122  0.8484057941119647  0.5279169731013802  1.0000
  H   H9        1.0  0.28329728662904946  0.018301552419589848  0.35283328206552733  1.0000
  H   H10       1.0  0.7167027134656447  0.981698446798512  0.6471667179083355  1.0000
  H   H11       1.0  0.4654576604135958  0.13444559811467288  0.2381353000802022  1.0000
  H   H12       1.0  0.5345423390164399  0.8655544020993019  0.7618646998943507  1.0000
  H   H13       1.0  0.8811965383185998  0.7508397933876032  0.39804824012576095  1.0000
  H   H14       1.0  0.11880346075294143  0.2491602058312383  0.6019517598504162  1.0000
  H   H15       1.0  0.09666290330423735  0.9339446340419391  0.513075751671696  1.0000
  H   H16       1.0  0.9033370967904569  0.06605536517616277  0.48692424830216696  1.0000
  H   H17       1.0  0.34343783272742534  0.9042410188153881  0.5661227306776209  1.0000
  H   H18       1.0  0.6565621667026105  0.09575898139858666  0.43387726929693204  1.0000
  H   H19       1.0  0.3734967566762627  0.6929362339499755  0.5036900583763718  1.0000
  H   H20       1.0  0.6265032437769261  0.3070637662632597  0.49630994159586683  1.0000
  H   H21       1.0  0.15536142386320376  0.5097750098001957  0.38984717282739884  1.0000
  H   H22       1.0  0.844638576589985  0.4902249904130395  0.6101528271448398  1.0000
  H   H23       1.0  0.02498447789231342  0.2082127029551554  0.2671464434441039  1.0000
  H   H24       1.0  0.9750155215377222  0.7917872972588192  0.7328535565304489  1.0000
  H   H25       1.0  0.06962084107395412  0.010173494929638708  0.19202506057959498  1.0000
  H   H26       1.0  0.9303791590207403  0.9898265042884633  0.8079749393942679  1.0000
  H   H27       1.0  0.8836370341608377  0.8573778861638159  0.03294398374107564  1.0000
  H   H28       1.0  0.1163629659338566  0.1426221130542862  0.9670560162327873  1.0000
  H   H29       1.0  0.6495825777529806  0.9011159021932351  0.9528866964046995  1.0000
  H   H30       1.0  0.3504174216770552  0.09888409802073966  0.04711330356985347  1.0000
  H   H31       1.0  0.604909852939357  0.09799065519047394  0.031764297558875075  1.0000
  H   H32       1.0  0.39509014751383187  0.9020093450227612  0.9682357024133634  1.0000
  H   H33       1.0  0.7012890390166115  0.4846206002025393  0.03022803618901467  1.0000
  H   H34       1.0  0.2987109610780828  0.5153793990155626  0.9697719637848483  1.0000
  H   H35       1.0  0.7386919933270044  0.6318582019994095  0.12062380810572142  1.0000
  H   H36       1.0  0.26130800610303123  0.36814179821456544  0.8793761918688313  1.0000
  H   H37       1.0  0.5454875027954331  0.6937757450736287  0.9913202423033981  1.0000
  H   H38       1.0  0.45451249765775564  0.3062242551396064  0.00867975766884054  1.0000
  H   H39       1.0  0.6748258671775096  0.6693987135412244  0.9157381278006633  1.0000
  H   H40       1.0  0.32517413225252617  0.33060128667275035  0.08426187217388949  1.0000
  H   H41       1.0  0.6640923352319571  0.8071630530269941  0.20204853116600544  1.0000
  H   H42       1.0  0.33590766419807866  0.1928369471869808  0.7979514688085473  1.0000
  H   H43       1.0  0.6291853142270766  0.7343730587529116  0.32872755109587587  1.0000
  H   H44       1.0  0.37081468622611213  0.26562694146032356  0.6712724488763626  1.0000
  H   H45       1.0  0.7255302249698078  0.908512235145729  0.3310710232033057  1.0000
  H   H46       1.0  0.274469775483381  0.09148776506750629  0.6689289767689328  1.0000
  H   H47       1.0  0.4617870756987314  0.8708772787786401  0.34598335483487686  1.0000
  H   H48       1.0  0.5382129247544575  0.12912272143459505  0.6540166451373618  1.0000
  H   H49       1.0  0.49903245833643345  0.9426971309108637  0.22189496316297377  1.0000
  H   H50       1.0  0.5009675421167554  0.05730286930237139  0.7781050368092648  1.0000
  H   H51       1.0  0.22599942452585106  0.8611762302418693  0.13908465977530493  1.0000
  H   H52       1.0  0.7740005759273378  0.13882376997136595  0.8609153401969337  1.0000
  H   H53       1.0  0.18511290735835778  0.780876377643876  0.2593614265523267  1.0000
  H   H54       1.0  0.8148870927363365  0.21912362157422585  0.7406385734215362  1.0000
  H   H55       1.0  0.9780704486182299  0.6763770776062489  0.09304509827756  1.0000
  H   H56       1.0  0.021929551834958958  0.32362292260698633  0.9069549016946786  1.0000
  H   H57       1.0  0.06380173538236898  0.5576554116268566  0.13931117167462545  1.0000
  H   H58       1.0  0.9361982650708198  0.44234458858637854  0.8606888282976132  1.0000
  H   H59       1.0  0.10110891983016088  0.6409143434418106  0.017477355840643218  1.0000
  H   H60       1.0  0.898891080623028  0.35908565677142457  0.9825226441315954  1.0000
  B   B1        1.0  0.6035269044296161  0.4037647190293559  0.22274643697393107  1.0000
  B   B2        1.0  0.39647309602357284  0.5962352811838795  0.7772535629983075  1.0000
  B   B3        1.0  0.8674353307020289  0.49983479242367734  0.31821001914715974  1.0000
  B   B4        1.0  0.13256466872800665  0.5001652077902974  0.681789980827393  1.0000
  B   B5        1.0  0.7816996178195569  0.29071256094705517  0.20274970337796971  1.0000
  B   B6        1.0  0.21830038227513734  0.7092874382710468  0.7972502965958931  1.0000
  C   C1        1.0  0.4767800233607892  0.332401998656904  0.2909986315578765  1.0000
  C   C2        1.0  0.5232199770923995  0.6675980015563312  0.709001368414362  1.0000
  C   C3        1.0  0.4243049347818698  0.40518087707087946  0.360513434965541  1.0000
  C   C4        1.0  0.5756950646481659  0.5948191231430954  0.6394865650090118  1.0000
  C   C5        1.0  0.32337336475482215  0.34126439469647274  0.426017890501667  1.0000
  C   C6        1.0  0.6766266356983666  0.6587356055167625  0.5739821094705716  1.0000
  C   C7        1.0  0.27144399797879487  0.20179345753639782  0.4221038125270125  1.0000
  C   C8        1.0  0.7285560024743939  0.7982065426768372  0.577896187445226  1.0000
  C   C9        1.0  0.3222906755384572  0.1270818086197806  0.35425651158932003  1.0000
  C   C10       1.0  0.6777093249147316  0.8729181915934545  0.6457434883829185  1.0000
  C   C11       1.0  0.42350612691733464  0.19250610015187988  0.2896316783970047  1.0000
  C   C12       1.0  0.5764938735358541  0.8074939000613552  0.7103683215752337  1.0000
  C   C13       1.0  0.0030312537592144034  0.6169197493678279  0.3878592165678924  1.0000
  C   C14       1.0  0.99696874633548  0.3830802498502741  0.6121407834059703  1.0000
  C   C15       1.0  0.9890316788723129  0.7381537126124056  0.4220907528182437  1.0000
  C   C16       1.0  0.010968321580876001  0.26184628760082956  0.5779092471539948  1.0000
  C   C17       1.0  0.1101648606800306  0.8410728596671594  0.4858811167606782  1.0000
  C   C18       1.0  0.8898351397731582  0.15892714054607587  0.5141188832115605  1.0000
  C   C19       1.0  0.2485599836319041  0.8247211522268725  0.5155577823864942  1.0000
  C   C20       1.0  0.7514400168212848  0.17527884798636262  0.4844422175857444  1.0000
  C   C21       1.0  0.2655997260299412  0.7056994797249471  0.4803640365307178  1.0000
  C   C22       1.0  0.7344002730416  0.2943005194938944  0.5196359634454593  1.0000
  C   C23       1.0  0.14349399836245005  0.603079909538013  0.41738358635448697  1.0000
  C   C24       1.0  0.8565060020907388  0.39692009067522205  0.5826164136177516  1.0000
  C   C25       1.0  0.811437220839951  0.1666239382100601  0.15511715045430846  1.0000
  C   C26       1.0  0.1885627785900848  0.8333760620039148  0.8448828495202444  1.0000
  C   C27       1.0  0.9422200252604184  0.1400584105196992  0.199000926780649  1.0000
  C   C28       1.0  0.05777997519277048  0.8599415896935361  0.8009990731915896  1.0000
  C   C29       1.0  0.9671315109012859  0.028503803219843613  0.1565955984772221  1.0000
  C   C30       1.0  0.03286848955190294  0.9714961969933916  0.8434044014950164  1.0000
  C   C31       1.0  0.8620569448259723  0.9423146140096678  0.06801127889498973  1.0000
  C   C32       1.0  0.13794305460406342  0.0576853862043072  0.9319887210795631  1.0000
  C   C33       1.0  0.7314168951624889  0.9672139185713164  0.022783063929116686  1.0000
  C   C34       1.0  0.2685831049322054  0.03278608064678546  0.9772169360447461  1.0000
  C   C35       1.0  0.7065327236701393  0.0779287992218492  0.0668851912870602  1.0000
  C   C36       1.0  0.29346727575989634  0.9220712009921256  0.9331148086874925  1.0000
  C   C37       1.0  0.6525075606936288  0.5549201694616475  0.05974483120301298  1.0000
  C   C38       1.0  0.3474924394010655  0.44507982975645444  0.9402551687708498  1.0000
  C   C39       1.0  0.5890049341555188  0.6194935713084306  0.9619417751755279  1.0000
  C   C40       1.0  0.4109950662976702  0.3805064289048046  0.038058224796710775  1.0000
  C   C41       1.0  0.6345690852605499  0.8227846325321607  0.2826977101444297  1.0000
  C   C42       1.0  0.3654309151926389  0.17721536768107446  0.717302289827809  1.0000
  C   C43       1.0  0.48940794704459006  0.8508547236950483  0.264890522740519  1.0000
  C   C44       1.0  0.5105920534085988  0.14914527651818701  0.7351094772317196  1.0000
  C   C45       1.0  0.35550432404186627  0.741022880859614  0.1971025450012888  1.0000
  C   C46       1.0  0.6444956753881694  0.2589771193543608  0.8028974549732639  1.0000
  C   C47       1.0  0.2090651431462993  0.7648974556707673  0.1759618203861887  1.0000
  C   C48       1.0  0.7909348562837364  0.23510254454320745  0.824038179588364  1.0000
  C   C49       1.0  0.08102904554496114  0.6533166529529295  0.10225929696120878  1.0000
  C   C50       1.0  0.9189709538850745  0.3466833472610453  0.8977407030133441  1.0000
  N   N1        1.0  0.5364164091165499  0.4788898240176511  0.12003754134859519  1.0000
  N   N2        1.0  0.4635835903134858  0.5211101761963237  0.8799624586259576  1.0000
  O   O1        1.0  0.7299491415546344  0.5103746393285343  0.2925907905363415  1.0000
  O   O2        1.0  0.2700508588985545  0.4896253608847009  0.7074092094358971  1.0000
  O   O3        1.0  0.8933580721599226  0.386549229362014  0.28005621139356707  1.0000
  O   O4        1.0  0.10664192829326612  0.6134507708512211  0.7199437885786715  1.0000
  O   O5        1.0  0.6470178943998627  0.30435678819498896  0.16633163226381825  1.0000
  O   O6        1.0  0.3529821060533262  0.6956432120182463  0.8336683677084203  1.0000
  O   O7        1.0  0.36460155688833457  0.6356773850647705  0.16008298794480696  1.0000
  O   O8        1.0  0.6353984435648542  0.3643226151484647  0.8399170120274316  1.0000
