data_image0
_chemical_formula_structural       H88C68N4O4Cl4
_chemical_formula_sum              "H88 C68 N4 O4 Cl4"
_cell_length_a       14.031193576344293
_cell_length_b       11.21399719053911
_cell_length_c       9.439400453311379
_cell_angle_alpha    90.0
_cell_angle_beta     91.7145073495182
_cell_angle_gamma    90.0

_space_group_name_H-M_alt    "P 1"
_space_group_IT_number       1

loop_
  _space_group_symop_operation_xyz
  'x, y, z'

loop_
  _atom_site_type_symbol
  _atom_site_label
  _atom_site_symmetry_multiplicity
  _atom_site_fract_x
  _atom_site_fract_y
  _atom_site_fract_z
  _atom_site_occupancy
  H   H1        1.0  0.4568073230523821  0.768060785432204  0.31902983661154866  1.0000
  H   H2        1.0  0.5431926768666411  0.2680607850103702  0.18097016346175077  1.0000
  H   H3        1.0  0.5431926769426734  0.23193921451972105  0.6809701641520459  1.0000
  H   H4        1.0  0.4568073231061695  0.731939214941555  0.8190298362419809  1.0000
  H   H5        1.0  0.2027111924250459  0.7106246902507825  0.5528107311132022  1.0000
  H   H6        1.0  0.7972888076237971  0.2106246898289485  0.9471892692808247  1.0000
  H   H7        1.0  0.7972888075477648  0.2893753097011428  0.4471892685905295  1.0000
  H   H8        1.0  0.20271119237125837  0.7893753101229767  0.05281073148276998  1.0000
  H   H9        1.0  0.29587568050096263  0.8354814087080739  0.38694799208672226  1.0000
  H   H10       1.0  0.7041243194180605  0.33548140828624  0.11305200798657719  1.0000
  H   H11       1.0  0.7041243194940928  0.16451859213559392  0.6130520086768724  1.0000
  H   H12       1.0  0.29587568055475016  0.6645185916656852  0.8869479917171544  1.0000
  H   H13       1.0  0.45910194436692925  0.4038938759340153  0.9934997182185038  1.0000
  H   H14       1.0  0.5408980556596689  0.9038938754641066  0.50650028111566  1.0000
  H   H15       1.0  0.5408980556058813  0.5961061249096525  0.006500281485227869  1.0000
  H   H16       1.0  0.45910194431314183  0.0961061244878186  0.4934997185880716  1.0000
  H   H17       1.0  0.37360199598885924  0.3324602687742217  0.4399803380193652  1.0000
  H   H18       1.0  0.626398003930164  0.8324602691960555  0.060019662053934164  1.0000
  H   H19       1.0  0.6263980039839514  0.6675397311777034  0.5600196616843665  1.0000
  H   H20       1.0  0.3736019960648916  0.1675397316476122  0.9399803387096605  1.0000
  H   H21       1.0  0.8851086899601327  0.4400557130657495  0.6181657890203732  1.0000
  H   H22       1.0  0.11489131008871023  0.9400557125958408  0.8818342113736537  1.0000
  H   H23       1.0  0.1148913100126779  0.5599442868861756  0.38183421068335843  1.0000
  H   H24       1.0  0.8851086899063453  0.05994428735608443  0.11816578938994102  1.0000
  H   H25       1.0  0.0006724329827104302  0.3953356207133908  0.6679880099710198  1.0000
  H   H26       1.0  0.9993275670438876  0.8953356211352248  0.8320119893631442  1.0000
  H   H27       1.0  0.9993275669901002  0.6046643792385343  0.33201198973271195  1.0000
  H   H28       1.0  0.0006724329289229295  0.10466437881670045  0.16798801034058755  1.0000
  H   H29       1.0  0.0018429949547488437  0.6157368869171305  0.7959449246652129  1.0000
  H   H30       1.0  0.9981570043814242  0.11573688649529659  0.70405507573017  1.0000
  H   H31       1.0  0.9981570050403066  0.3842631130347946  0.20405507609838172  1.0000
  H   H32       1.0  0.00184299559138638  0.8842631134566286  0.2959449239735617  1.0000
  H   H33       1.0  0.035825216237145664  0.5902251621379088  0.6217395097200566  1.0000
  H   H34       1.0  0.9641747838116973  0.09022516260781752  0.8782604906739704  1.0000
  H   H35       1.0  0.9641747837579098  0.4097748378140164  0.378260491043538  1.0000
  H   H36       1.0  0.03582521616111333  0.9097748373441076  0.12173950902976141  1.0000
  H   H37       1.0  0.8725660875833354  0.6370348323278443  0.5287227462662597  1.0000
  H   H38       1.0  0.12743391246550756  0.1370348319060104  0.9712772541277672  1.0000
  H   H39       1.0  0.1274339123894752  0.3629651676240809  0.47127725343747207  1.0000
  H   H40       1.0  0.8725660875295479  0.8629651680459147  0.028722746635827367  1.0000
  H   H41       1.0  0.9328493448747273  0.7569297740828068  0.6110911414143884  1.0000
  H   H42       1.0  0.06715065515187091  0.2569297745527156  0.8889088579197756  1.0000
  H   H43       1.0  0.0671506550980834  0.2430702258691183  0.38890885828934335  1.0000
  H   H44       1.0  0.9328493448209397  0.7430702253992096  0.11109114178395613  1.0000
  H   H45       1.0  0.5969901477444932  0.5683472709781906  0.7474032879080404  1.0000
  H   H46       1.0  0.40300985230434966  0.06834727144809934  0.7525967124859866  1.0000
  H   H47       1.0  0.40300985222831737  0.4316527289737346  0.2525967117956914  1.0000
  H   H48       1.0  0.5969901476907058  0.9316527285038259  0.24740328827760813  1.0000
  H   H49       1.0  0.7531255435076909  0.5263344238198661  0.6593337857175042  1.0000
  H   H50       1.0  0.24687445651890716  0.02633442428977484  0.8406662136166596  1.0000
  H   H51       1.0  0.2468744571777895  0.473665576132059  0.3406662139848714  1.0000
  H   H52       1.0  0.7531255434539035  0.973665576553893  0.15933378608707202  1.0000
  H   H53       1.0  0.8343967038422289  0.7341237972616458  0.8259279066732921  1.0000
  H   H54       1.0  0.16560329618436928  0.23412379773155456  0.6740720926608719  1.0000
  H   H55       1.0  0.16560329613058175  0.26587620269027934  0.17407209303043958  1.0000
  H   H56       1.0  0.8343967037884413  0.7658762031121134  0.32592790704285984  1.0000
  H   H57       1.0  0.7707500470402975  0.7688045550139405  0.6683153458734321  1.0000
  H   H58       1.0  0.22924995298630058  0.26880455459210656  0.8316846534607318  1.0000
  H   H59       1.0  0.22924995293251307  0.23119544493798466  0.3316846538302996  1.0000
  H   H60       1.0  0.7707500469865101  0.7311954453598185  0.16831534624299982  1.0000
  H   H61       1.0  0.8531189863373987  0.4627495826713799  0.044319369757413025  1.0000
  H   H62       1.0  0.1468810135816245  0.9627495830932138  0.4556806303158864  1.0000
  H   H63       1.0  0.14688101363541198  0.5372504172805453  0.9556806299463187  1.0000
  H   H64       1.0  0.8531189864134309  0.037250417750454054  0.5443193704477083  1.0000
  H   H65       1.0  0.6316925929937895  0.7035890678353814  0.7932877417515245  1.0000
  H   H66       1.0  0.3683074070328085  0.20358906741354757  0.7067122575826394  1.0000
  H   H67       1.0  0.36830740697902103  0.2964109321165437  0.20671225795220724  1.0000
  H   H68       1.0  0.6316925929400021  0.7964109325383776  0.2932877421210922  1.0000
  H   H69       1.0  0.9721810549715386  0.3822316839544289  0.9075217817460314  1.0000
  H   H70       1.0  0.02781894505505946  0.8822316843762629  0.5924782175881328  1.0000
  H   H71       1.0  0.02781894500127196  0.6177683159974962  0.09247821795770042  1.0000
  H   H72       1.0  0.9721810549177511  0.11776831557566225  0.40752178211559903  1.0000
  H   H73       1.0  0.8655490207210622  0.32975879850583617  0.8279668094231983  1.0000
  H   H74       1.0  0.13445097859286614  0.8297587989276701  0.6720331899123216  1.0000
  H   H75       1.0  0.13445097925174848  0.670241201446089  0.17203319028053332  1.0000
  H   H76       1.0  0.8655490213799446  0.17024120102425505  0.3279668097914101  1.0000
  H   H77       1.0  0.7089887704513569  0.4507797428614283  0.8873225652412227  1.0000
  H   H78       1.0  0.29101122959748615  0.9507797432832623  0.6126774351528042  1.0000
  H   H79       1.0  0.2910112295436986  0.5492202570904968  0.11267743552237192  1.0000
  H   H80       1.0  0.7089887703753244  0.049220257560405614  0.38732256455092756  1.0000
  H   H81       1.0  0.8976041023102621  0.5818580938744032  0.9470724116755964  1.0000
  H   H82       1.0  0.10239589773858081  0.0818580934525693  0.5529275887184305  1.0000
  H   H83       1.0  0.10239589768479333  0.4181419060775219  0.05292758908799828  1.0000
  H   H84       1.0  0.8976041022342298  0.9181419064993559  0.4470724109853011  1.0000
  H   H85       1.0  0.7245207964314444  0.591785619992737  0.968083190943399  1.0000
  H   H86       1.0  0.2754792035951537  0.09178561957090318  0.5319168083907648  1.0000
  H   H87       1.0  0.27547920354136624  0.408214379959188  0.031916808760332566  1.0000
  H   H88       1.0  0.724520796377657  0.908214380381022  0.46808319131296683  1.0000
  C   C1        1.0  0.4555488783766673  0.6098344848676773  0.44871768213299856  1.0000
  C   C2        1.0  0.5444511215423559  0.10983448444584343  0.05128231794030091  1.0000
  C   C3        1.0  0.5444511215961434  0.39016551508424774  0.5512823175707332  1.0000
  C   C4        1.0  0.4555488784304548  0.8901655155060817  0.9487176817634307  1.0000
  C   C5        1.0  0.44287235607308667  0.41943349102746463  0.5971552122985898  1.0000
  C   C6        1.0  0.5571276439757563  0.9194334905575557  0.9028447880954371  1.0000
  C   C7        1.0  0.557127643899724  0.5805665098162032  0.4028447874051419  1.0000
  C   C8        1.0  0.4428723560192991  0.08056650939436928  0.09715521266815756  1.0000
  C   C9        1.0  0.40432329081107465  0.5387315385718912  0.5417283768034622  1.0000
  C   C10       1.0  0.5956767092377684  0.03873153815005721  0.9582716235905647  1.0000
  C   C11       1.0  0.595676709161736  0.4612684622717767  0.45827162290026946  1.0000
  C   C12       1.0  0.4043232907350423  0.961268461801868  0.041728376113167015  1.0000
  C   C13       1.0  0.44643248281820097  0.4204080302407631  0.7531421792892605  1.0000
  C   C14       1.0  0.5535675172306419  0.9204080306625971  0.7468578211047664  1.0000
  C   C15       1.0  0.5535675171768545  0.579591969711162  0.24685782147433408  1.0000
  C   C16       1.0  0.4464324827421686  0.07959196928932806  0.2531421785989653  1.0000
  C   C17       1.0  0.31243105655846515  0.5786934337271774  0.5773864776847266  1.0000
  C   C18       1.0  0.687568943468133  0.07869343419708628  0.9226135216494374  1.0000
  C   C19       1.0  0.6875689434143454  0.42130656622474766  0.42261352201900504  1.0000
  C   C20       1.0  0.3124310565046777  0.9213065657548388  0.07738647805429438  1.0000
  C   C21       1.0  0.41609375067987764  0.7157078973384471  0.3932998892949079  1.0000
  C   C22       1.0  0.5839062492391456  0.21570789691661316  0.10670011077839153  1.0000
  C   C23       1.0  0.5839062493151779  0.2842921026134781  0.6067001114686867  1.0000
  C   C24       1.0  0.41609375073366517  0.7842921030353119  0.8932998889253403  1.0000
  C   C25       1.0  0.2738357725459352  0.6839628653082681  0.5228836272890327  1.0000
  C   C26       1.0  0.7261642275029078  0.18396286577817694  0.9771163731049942  1.0000
  C   C27       1.0  0.7261642274268754  0.31603713464365696  0.47711637241469906  1.0000
  C   C28       1.0  0.2738357724921477  0.8160371341737481  0.022883627658600417  1.0000
  C   C29       1.0  0.4542865973512246  0.4134720672047085  0.8809309163029865  1.0000
  C   C30       1.0  0.5457134026753735  0.9134720676265424  0.6190690830311775  1.0000
  C   C31       1.0  0.545713402621586  0.5865279327472166  0.11906908340074517  1.0000
  C   C32       1.0  0.45428659729743714  0.08652793232538271  0.3809309166725543  1.0000
  C   C33       1.0  0.32601101594983967  0.7530679619863551  0.429900417201706  1.0000
  C   C34       1.0  0.6739889839691836  0.25306796156452116  0.07009958287159347  1.0000
  C   C35       1.0  0.6739889840452159  0.24693203796557006  0.5700995835618886  1.0000
  C   C36       1.0  0.3260110160036271  0.746932038387404  0.9299004168321383  1.0000
  C   C37       1.0  0.7423595966533203  0.5924002170791189  0.7435160127842277  1.0000
  C   C38       1.0  0.2576404026828528  0.09240021665728508  0.7564839876111552  1.0000
  C   C39       1.0  0.25764040331949034  0.4075997828728062  0.2564839869195039  1.0000
  C   C40       1.0  0.7423595973122027  0.9075997832946401  0.24351601315243948  1.0000
  C   C41       1.0  0.7540822597650361  0.5313219487005737  0.8883494849569539  1.0000
  C   C42       1.0  0.24591774028380683  0.031321948278739846  0.6116505154370732  1.0000
  C   C43       1.0  0.24591774023001933  0.46867805125135137  0.11165051580664091  1.0000
  C   C44       1.0  0.7540822596890038  0.9686780516731853  0.38834948426665855  1.0000
  C   C45       1.0  0.8114338057251151  0.6972593186126971  0.7221371199652014  1.0000
  C   C46       1.0  0.188566194301483  0.19725931819086315  0.7778628793689626  1.0000
  C   C47       1.0  0.18856619424769547  0.3027406822309707  0.27786287973853036  1.0000
  C   C48       1.0  0.8114338056713276  0.8027406817610621  0.2221371203347691  1.0000
  C   C49       1.0  0.8555003405586532  0.49931062981930496  0.9362732490045431  1.0000
  C   C50       1.0  0.1444996594679449  0.9993106293493962  0.5637267503296209  1.0000
  C   C51       1.0  0.14449965941415743  0.5006893701326202  0.06372675069918864  1.0000
  C   C52       1.0  0.8555003405048657  0.0006893706025289589  0.4362732493741108  1.0000
  C   C53       1.0  0.9419768086103163  0.454068680728393  0.699349391211609  1.0000
  C   C54       1.0  0.058023191438526654  0.9540686802584841  0.8006506091824179  1.0000
  C   C55       1.0  0.05802319209740901  0.5459313192235321  0.30065060955062967  1.0000
  C   C56       1.0  0.941976808534284  0.0459313196934409  0.19934939052131376  1.0000
  C   C57       1.0  0.9089344795684996  0.4107228780015928  0.8446743324419427  1.0000
  C   C58       1.0  0.0910655204580985  0.9107228784234267  0.6553256668922214  1.0000
  C   C59       1.0  0.09106552040431101  0.5892771219503323  0.15532566726178906  1.0000
  C   C60       1.0  0.9089344795147122  0.08927712152849841  0.3446743328115104  1.0000
  C   C61       1.0  0.9745236199104469  0.584973141025429  0.6914100126059111  1.0000
  C   C62       1.0  0.025476380116151304  0.08497314060359507  0.8085899867282529  1.0000
  C   C63       1.0  0.025476380062363805  0.41502685892649616  0.30858998709782065  1.0000
  C   C64       1.0  0.9745236198566594  0.9150268593483302  0.1914100129754788  1.0000
  C   C65       1.0  0.8983024647202671  0.6710834381471975  0.6325910534133795  1.0000
  C   C66       1.0  0.10169753532857587  0.17108343861710626  0.8674089469806474  1.0000
  C   C67       1.0  0.10169753527478838  0.3289165618047276  0.3674089473502151  1.0000
  C   C68       1.0  0.8983024646442347  0.8289165622265615  0.13259105272308433  1.0000
  N   N1        1.0  0.6430273949105254  0.6355936976703794  0.7222732675875971  1.0000
  N   N2        1.0  0.35697260513831763  0.13559369814028818  0.7777267328064298  1.0000
  N   N3        1.0  0.35697260506228523  0.3644063022815457  0.2777267321161345  1.0000
  N   N4        1.0  0.6430273948344931  0.8644063018116369  0.22227326689730198  1.0000
  O   O1        1.0  0.38131296715856555  0.32431507500896367  0.5511968107896923  1.0000
  O   O2        1.0  0.6186870328902774  0.8243150745390548  0.9488031896043349  1.0000
  O   O3        1.0  0.6186870328364898  0.6756849258347042  0.44880318997390245  1.0000
  O   O4        1.0  0.3813129670825332  0.1756849254128702  0.051196810099397014  1.0000
  Cl  Cl1       1.0  0.2404876517783075  0.4977334678404415  0.6885912238957334  1.0000
  Cl  Cl2       1.0  0.7595123482705354  0.9977334673705327  0.8114087764982936  1.0000
  Cl  Cl3       1.0  0.7595123481945031  0.5022665321114836  0.3114087758079983  1.0000
  Cl  Cl4       1.0  0.24048765172452  0.0022665325813924237  0.18859122426530112  1.0000
