data_image0
_chemical_formula_structural       H120B8C80N24O8
_chemical_formula_sum              "H120 B8 C80 N24 O8"
_cell_length_a       22.539092467958874
_cell_length_b       8.4231737938653
_cell_length_c       12.347562973023958
_cell_angle_alpha    90.0
_cell_angle_beta     114.38625314451664
_cell_angle_gamma    90.0

_space_group_name_H-M_alt    "P 1"
_space_group_IT_number       1

loop_
  _space_group_symop_operation_xyz
  'x, y, z'

loop_
  _atom_site_type_symbol
  _atom_site_label
  _atom_site_symmetry_multiplicity
  _atom_site_fract_x
  _atom_site_fract_y
  _atom_site_fract_z
  _atom_site_occupancy
  H   H1        1.0  0.4350747766799196  0.7933964398155061  0.09928365943793069  1.0000
  H   H2        1.0  0.5649252232058243  0.7933964398155061  0.4007163410683971  1.0000
  H   H3        1.0  0.9350747767346268  0.2933964406385511  0.09928365923546262  1.0000
  H   H4        1.0  0.06492522338876978  0.2933964406385511  0.4007163403749479  1.0000
  H   H5        1.0  0.5649252232198062  0.20660355972560493  0.9007163410837438  1.0000
  H   H6        1.0  0.4350747766939016  0.20660355972560493  0.5992836594532773  1.0000
  H   H7        1.0  0.06492522340275181  0.706603560089761  0.9007163403902945  1.0000
  H   H8        1.0  0.9350747767486088  0.706603560089761  0.5992836592508094  1.0000
  H   H9        1.0  0.42693978745553723  0.20183026749824015  0.8046574624146275  1.0000
  H   H10       1.0  0.5730602126958236  0.20183026749824015  0.6953425372264763  1.0000
  H   H11       1.0  0.9269397870681068  0.7018302678623961  0.8046574622188929  1.0000
  H   H12       1.0  0.0730602126411162  0.7018302678623961  0.6953425374289444  1.0000
  H   H13       1.0  0.5730602126818415  0.7981697320428709  0.19534253721112962  1.0000
  H   H14       1.0  0.4269397874415552  0.7981697320428709  0.3046574623992809  1.0000
  H   H15       1.0  0.07306021262713416  0.29816973286591586  0.19534253741359775  1.0000
  H   H16       1.0  0.9269397870541247  0.29816973286591586  0.30465746220354634  1.0000
  H   H17       1.0  0.31691630572426743  0.20176487765665796  0.7308410912444531  1.0000
  H   H18       1.0  0.6830836941894405  0.20176487765665796  0.769158909292568  1.0000
  H   H19       1.0  0.8169163057789747  0.7017648780208139  0.7308410910419849  1.0000
  H   H20       1.0  0.18308369457687096  0.7017648780208139  0.7691589094883027  1.0000
  H   H21       1.0  0.6830836941754584  0.7982351218844531  0.2691589092772214  1.0000
  H   H22       1.0  0.31691630571028534  0.7982351218844531  0.2308410912291064  1.0000
  H   H23       1.0  0.18308369456288892  0.2982351215202971  0.26915890947295595  1.0000
  H   H24       1.0  0.8169163057649926  0.2982351215202971  0.23084109102663833  1.0000
  H   H25       1.0  0.21415245052277  0.10879232607872916  0.7352673400673501  1.0000
  H   H26       1.0  0.7858475496285908  0.10879232607872916  0.7647326595737536  1.0000
  H   H27       1.0  0.7141524507819622  0.6087923264428852  0.7352673407540659  1.0000
  H   H28       1.0  0.2858475495738835  0.6087923264428852  0.7647326597762218  1.0000
  H   H29       1.0  0.7858475496146087  0.8912076734623819  0.264732659558407  1.0000
  H   H30       1.0  0.21415245050878798  0.8912076734623819  0.2352673400520035  1.0000
  H   H31       1.0  0.28584754955990144  0.3912076730982259  0.2647326597608751  1.0000
  H   H32       1.0  0.7141524507679802  0.3912076730982259  0.23526734073871913  1.0000
  H   H33       1.0  0.21798931328862203  0.9040190237492054  0.8872122413652578  1.0000
  H   H34       1.0  0.782010686420601  0.9040190237492054  0.6127877582825796  1.0000
  H   H35       1.0  0.7179893135478143  0.40401902338504936  0.8872122420519735  1.0000
  H   H36       1.0  0.2820106863658936  0.40401902338504936  0.6127877584850476  1.0000
  H   H37       1.0  0.7820106864066189  0.09598097579190569  0.11278775826723292  1.0000
  H   H38       1.0  0.21798931327463997  0.09598097579190569  0.3872122413499111  1.0000
  H   H39       1.0  0.28201068635191157  0.5959809761560617  0.11278775846970099  1.0000
  H   H40       1.0  0.7179893135338322  0.5959809761560617  0.3872122420366268  1.0000
  H   H41       1.0  0.32481092505916903  0.7993628511979476  0.028593483941668354  1.0000
  H   H42       1.0  0.6751890748265748  0.7993628511979476  0.47140651656465943  1.0000
  H   H43       1.0  0.8248109251138763  0.2993628508337915  0.02859348373920028  1.0000
  H   H44       1.0  0.17518907521400523  0.2993628508337915  0.47140651676039397  1.0000
  H   H45       1.0  0.6751890748405569  0.20063714953036446  0.9714065165800061  1.0000
  H   H46       1.0  0.32481092507315107  0.20063714953036446  0.5285934839570151  1.0000
  H   H47       1.0  0.17518907522798727  0.7006371487073195  0.9714065167757406  1.0000
  H   H48       1.0  0.8248109251278584  0.7006371487073195  0.528593483754547  1.0000
  H   H49       1.0  0.3551627058888904  0.454928542824422  0.5020910844902712  1.0000
  H   H50       1.0  0.6448372942624705  0.454928542824422  0.9979089151508326  1.0000
  H   H51       1.0  0.8551627061480825  0.9549285420013771  0.5020910851769869  1.0000
  H   H52       1.0  0.14483729420776317  0.9549285420013771  0.9979089153533007  1.0000
  H   H53       1.0  0.6448372942484885  0.54507145790389  0.4979089151354861  1.0000
  H   H54       1.0  0.35516270607939315  0.54507145790389  0.0020910853641082174  1.0000
  H   H55       1.0  0.1448372941937811  0.04507145753973399  0.49790891533795406  1.0000
  H   H56       1.0  0.8551627061341004  0.04507145753973399  0.0020910851616401474  1.0000
  H   H57       1.0  0.37559053935857184  0.6472506353805364  0.4642985098336197  1.0000
  H   H58       1.0  0.6244094609693098  0.6472506353805364  0.035701490665974514  1.0000
  H   H59       1.0  0.8755905389711414  0.14725063501638042  0.46429850963788516  1.0000
  H   H60       1.0  0.12440946071011759  0.14725063501638042  0.03570148997925887  1.0000
  H   H61       1.0  0.6244094609832918  0.3527493641605746  0.5357014906813211  1.0000
  H   H62       1.0  0.3755905393725538  0.3527493641605746  0.9642985098489664  1.0000
  H   H63       1.0  0.12440946072409963  0.8527493645247307  0.5357014899946055  1.0000
  H   H64       1.0  0.8755905389851234  0.8527493645247307  0.9642985096532318  1.0000
  H   H65       1.0  0.3011378686388817  0.619420380925769  0.4791086942374711  1.0000
  H   H66       1.0  0.6988621312468621  0.619420380925769  0.020891306268856564  1.0000
  H   H67       1.0  0.8011378686935889  0.11942038056161301  0.4791086940350031  1.0000
  H   H68       1.0  0.19886213119215476  0.11942038056161301  0.02089130647132464  1.0000
  H   H69       1.0  0.6988621312608441  0.38057961980254296  0.5208913062842032  1.0000
  H   H70       1.0  0.30113786865286374  0.38057961980254296  0.9791086942528179  1.0000
  H   H71       1.0  0.19886213120613677  0.880579620166699  0.5208913064866713  1.0000
  H   H72       1.0  0.8011378687075711  0.880579620166699  0.9791086940503498  1.0000
  H   H73       1.0  0.3890181889900128  0.8024026258276302  0.7609360039894835  1.0000
  H   H74       1.0  0.6109818113658328  0.8024026258276302  0.739063996540804  1.0000
  H   H75       1.0  0.8890181886025824  0.30240262546347424  0.760936003793749  1.0000
  H   H76       1.0  0.11098181110664064  0.30240262546347424  0.7390639958540884  1.0000
  H   H77       1.0  0.6109818113518508  0.19759737371348082  0.23906399652545737  1.0000
  H   H78       1.0  0.38901818897603074  0.19759737371348082  0.26093600397413685  1.0000
  H   H79       1.0  0.1109818110926586  0.6975973740776369  0.23906399583874174  1.0000
  H   H80       1.0  0.889018189030738  0.6975973740776369  0.2609360037716688  1.0000
  H   H81       1.0  0.34292274186723254  0.8455091363764741  0.6084054911543416  1.0000
  H   H82       1.0  0.6570772578419903  0.8455091363764741  0.8915945084934956  1.0000
  H   H83       1.0  0.8429227419219399  0.3455091371995191  0.6084054909518736  1.0000
  H   H84       1.0  0.15707725822942087  0.3455091371995191  0.8915945086892303  1.0000
  H   H85       1.0  0.6570772578280084  0.15449086316463692  0.39159450847814903  1.0000
  H   H86       1.0  0.34292274185325056  0.15449086316463692  0.10840549113899497  1.0000
  H   H87       1.0  0.15707725821543883  0.6544908635287929  0.3915945086738836  1.0000
  H   H88       1.0  0.8429227419079578  0.6544908635287929  0.1084054909365269  1.0000
  H   H89       1.0  0.4291619581235281  0.848869959825305  0.6666908525739391  1.0000
  H   H90       1.0  0.5708380420278327  0.848869959825305  0.8333091470671649  1.0000
  H   H91       1.0  0.9291619581782355  0.34886996064834996  0.6666908523714711  1.0000
  H   H92       1.0  0.07083804197312539  0.34886996064834996  0.8333091472696329  1.0000
  H   H93       1.0  0.5708380420138506  0.15113003971580607  0.333309147051818  1.0000
  H   H94       1.0  0.42916195810954605  0.15113003971580607  0.16669085255859248  1.0000
  H   H95       1.0  0.07083804195914331  0.6511300400799621  0.3333091472542861  1.0000
  H   H96       1.0  0.9291619581642534  0.6511300400799621  0.1666908523561244  1.0000
  H   H97       1.0  0.4749799561031743  0.44775616795973616  0.8996661074036583  1.0000
  H   H98       1.0  0.5250200436060488  0.44775616795973616  0.6003338922441791  1.0000
  H   H99       1.0  0.9749799563623665  0.9477561671366913  0.899666108090374  1.0000
  H   H100      1.0  0.025020043551341423  0.9477561671366913  0.6003338924466471  1.0000
  H   H101      1.0  0.5250200435920668  0.5522438327685758  0.1003338922288324  1.0000
  H   H102      1.0  0.47497995608919225  0.5522438327685758  0.3996661073883116  1.0000
  H   H103      1.0  0.025020043537359375  0.052243832404419835  0.10033389243130048  1.0000
  H   H104      1.0  0.9749799563483845  0.052243832404419835  0.3996661080750273  1.0000
  H   H105      1.0  0.4188592063649855  0.6040743862730001  0.885748973489149  1.0000
  H   H106      1.0  0.5811407937863752  0.6040743862730001  0.6142510261519548  1.0000
  H   H107      1.0  0.9188592064196929  0.10407438590884412  0.8857489732866808  1.0000
  H   H108      1.0  0.08114079373166791  0.10407438590884412  0.614251026354423  1.0000
  H   H109      1.0  0.5811407937723931  0.3959256144553119  0.1142510261366082  1.0000
  H   H110      1.0  0.41885920635100354  0.3959256144553119  0.3857489734738023  1.0000
  H   H111      1.0  0.08114079371768586  0.8959256136322669  0.11425102633907627  1.0000
  H   H112      1.0  0.9188592064057108  0.8959256136322669  0.3857489732713343  1.0000
  H   H113      1.0  0.4881576419027547  0.6437499822156361  0.858509532327364  1.0000
  H   H114      1.0  0.511842358248606  0.6437499822156361  0.6414904673137399  1.0000
  H   H115      1.0  0.988157641957462  0.14374998303868108  0.858509532124896  1.0000
  H   H116      1.0  0.011842358193898743  0.14374998303868108  0.641490467516208  1.0000
  H   H117      1.0  0.5118423582346241  0.3562500173254749  0.14149046729839326  1.0000
  H   H118      1.0  0.4881576418887727  0.3562500173254749  0.35850953231201727  1.0000
  H   H119      1.0  0.011842358179916706  0.8562500176896309  0.1414904675008613  1.0000
  H   H120      1.0  0.98815764194348  0.8562500176896309  0.3585095321095493  1.0000
  B   B1        1.0  0.5013734488475052  0.932590763557694  0.048862100827348556  1.0000
  B   B2        1.0  0.49862655083375373  0.932590763557694  0.45113789878979554  1.0000
  B   B3        1.0  0.001373449234935638  0.43259076438073896  0.04886210102308311  1.0000
  B   B4        1.0  0.9986265508884611  0.43259076438073896  0.4511378985873274  1.0000
  B   B5        1.0  0.49862655084773577  0.067409235983417  0.9511378988051422  1.0000
  B   B6        1.0  0.5013734488614872  0.067409235983417  0.5488621008426952  1.0000
  B   B7        1.0  0.9986265509024431  0.567409236347573  0.9511378986026741  1.0000
  B   B8        1.0  0.001373448806779879  0.567409236347573  0.5488621010451633  1.0000
  C   C1        1.0  0.3813959065731568  0.9388234368094599  0.9607176798270153  1.0000
  C   C2        1.0  0.6186040933405511  0.9388234368094599  0.5392823207100059  1.0000
  C   C3        1.0  0.8813959066278642  0.43882343644530397  0.9607176796245471  1.0000
  C   C4        1.0  0.11860409328584376  0.43882343644530397  0.539282320912474  1.0000
  C   C5        1.0  0.6186040933265691  0.06117656273165108  0.039282320694659256  1.0000
  C   C6        1.0  0.38139590655917477  0.06117656273165108  0.4607176798116685  1.0000
  C   C7        1.0  0.11860409327186174  0.5611765630958071  0.03928232089712733  1.0000
  C   C8        1.0  0.8813959066138821  0.5611765630958071  0.46071767960920046  1.0000
  C   C9        1.0  0.3791046822966707  0.056323123754792453  0.8754478246510894  1.0000
  C   C10       1.0  0.6208953174125523  0.056323123754792453  0.6245521749967479  1.0000
  C   C11       1.0  0.8791046823513781  0.5563231241189485  0.8754478244486215  1.0000
  C   C12       1.0  0.1208953177999828  0.5563231241189485  0.6245521751924825  1.0000
  C   C13       1.0  0.6208953178407081  0.9436768757863185  0.12455217497466775  1.0000
  C   C14       1.0  0.3791046822826886  0.9436768757863185  0.3754478246357428  1.0000
  C   C15       1.0  0.12089531778600075  0.44367687660936356  0.12455217517713583  1.0000
  C   C16       1.0  0.8791046823373959  0.44367687660936356  0.3754478244332747  1.0000
  C   C17       1.0  0.31805359878538564  0.1122401559241909  0.7953255669719614  1.0000
  C   C18       1.0  0.6819464009238373  0.1122401559241909  0.704674432675876  1.0000
  C   C19       1.0  0.818053598840093  0.6122401551011459  0.7953255667694934  1.0000
  C   C20       1.0  0.18194640086913003  0.6122401551011459  0.704674432878344  1.0000
  C   C21       1.0  0.6819464009098554  0.8877598448041211  0.2046744326605293  1.0000
  C   C22       1.0  0.31805359921354137  0.8877598448041211  0.2953255669498812  1.0000
  C   C23       1.0  0.18194640085514802  0.38775984443996514  0.20467443286299739  1.0000
  C   C24       1.0  0.818053598826111  0.38775984443996514  0.2953255667541467  1.0000
  C   C25       1.0  0.2601973198719766  0.05951394002639482  0.7982183740288793  1.0000
  C   C26       1.0  0.7398026802793842  0.05951394002639482  0.7017816256122245  1.0000
  C   C27       1.0  0.7601973199266839  0.5595139403905508  0.7982183738264113  1.0000
  C   C28       1.0  0.23980268022467688  0.5595139403905508  0.7017816258146926  1.0000
  C   C29       1.0  0.7398026802654022  0.9404860595147162  0.20178162559687787  1.0000
  C   C30       1.0  0.2601973198579946  0.9404860595147162  0.2982183740135327  1.0000
  C   C31       1.0  0.2398026802106948  0.4404860591505602  0.20178162579934597  1.0000
  C   C32       1.0  0.760197319912702  0.4404860591505602  0.2982183738110646  1.0000
  C   C33       1.0  0.2624714063420609  0.9461544062885622  0.8824477362282043  1.0000
  C   C34       1.0  0.7375285938092998  0.9461544062885622  0.6175522634128996  1.0000
  C   C35       1.0  0.7624714066012531  0.4461544059244062  0.8824477369149198  1.0000
  C   C36       1.0  0.23752859375459257  0.4461544059244062  0.6175522636153677  1.0000
  C   C37       1.0  0.7375285937953178  0.05384559443974983  0.117552263397553  1.0000
  C   C38       1.0  0.26247140653256373  0.05384559443974983  0.3824477371020413  1.0000
  C   C39       1.0  0.23752859374061056  0.5538455948039058  0.11755226360002109  1.0000
  C   C40       1.0  0.7624714065872711  0.5538455948039058  0.3824477368995731  1.0000
  C   C41       1.0  0.322381245703322  0.8865893548865107  0.9616097648123748  1.0000
  C   C42       1.0  0.677618754005901  0.8865893548865107  0.5383902348354627  1.0000
  C   C43       1.0  0.8223812457580294  0.38658935452235466  0.9616097646099068  1.0000
  C   C44       1.0  0.17761875395119364  0.38658935452235466  0.5383902350379307  1.0000
  C   C45       1.0  0.677618753991919  0.11341064584180136  0.038390234820115936  1.0000
  C   C46       1.0  0.32238124568934  0.11341064584180136  0.4616097647970281  1.0000
  C   C47       1.0  0.17761875393721158  0.6134106450187564  0.03839023502258402  1.0000
  C   C48       1.0  0.8223812457440473  0.6134106450187564  0.46160976459456005  1.0000
  C   C49       1.0  0.4145061821352286  0.504937528784891  0.720199467097449  1.0000
  C   C50       1.0  0.5854938175739943  0.504937528784891  0.7798005325503884  1.0000
  C   C51       1.0  0.9145061823944209  0.004937528420734979  0.7201994677841648  1.0000
  C   C52       1.0  0.08549381796142483  0.004937528420734979  0.7798005327461229  1.0000
  C   C53       1.0  0.5854938175600123  0.49506247075622006  0.27980053253504167  1.0000
  C   C54       1.0  0.4145061821212467  0.49506247075622006  0.2201994670821024  1.0000
  C   C55       1.0  0.08549381794744278  0.9950624711203762  0.2798005327307762  1.0000
  C   C56       1.0  0.9145061823804387  0.9950624711203762  0.22019946776881802  1.0000
  C   C57       1.0  0.3524253387265852  0.5829161014789953  0.5139033407521081  1.0000
  C   C58       1.0  0.6475746616292605  0.5829161014789953  0.9860966597781796  1.0000
  C   C59       1.0  0.8524253383391548  0.08291610111483932  0.5139033405563735  1.0000
  C   C60       1.0  0.14757466137006825  0.08291610111483932  0.9860966590914638  1.0000
  C   C61       1.0  0.6475746616152784  0.4170838992493167  0.4860966597628328  1.0000
  C   C62       1.0  0.3524253387126032  0.4170838992493167  0.01390334073676146  1.0000
  C   C63       1.0  0.14757466135608624  0.9170838984262717  0.48609665907611715  1.0000
  C   C64       1.0  0.8524253383251728  0.9170838984262717  0.013903340541026902  1.0000
  C   C65       1.0  0.38721740527960263  0.7874615782985316  0.6716887802341823  1.0000
  C   C66       1.0  0.6127825946341052  0.7874615782985316  0.8283112203028389  1.0000
  C   C67       1.0  0.88721740533431  0.28746157912157655  0.6716887800317143  1.0000
  C   C68       1.0  0.11278259437491302  0.28746157912157655  0.8283112196161231  1.0000
  C   C69       1.0  0.6127825946201232  0.2125384212425795  0.3283112202874921  1.0000
  C   C70       1.0  0.3872174052656206  0.2125384212425795  0.17168878021883563  1.0000
  C   C71       1.0  0.11278259436093098  0.7125384216067355  0.32831121960077647  1.0000
  C   C72       1.0  0.887217405320328  0.7125384216067355  0.17168878001636753  1.0000
  C   C73       1.0  0.45123133867790466  0.5530935754160815  0.8484382946023379  1.0000
  C   C74       1.0  0.5487686610313184  0.5530935754160815  0.6515617050454995  1.0000
  C   C75       1.0  0.951231338732612  0.05309357623912653  0.84843829439987  1.0000
  C   C76       1.0  0.048768660976611033  0.05309357623912653  0.6515617052479675  1.0000
  C   C77       1.0  0.5487686610173363  0.4469064241250295  0.15156170503015282  1.0000
  C   C78       1.0  0.45123133866392257  0.4469064241250295  0.3484382945869912  1.0000
  C   C79       1.0  0.048768660962629  0.9469064244891855  0.15156170523262086  1.0000
  C   C80       1.0  0.95123133871863  0.9469064244891855  0.3484382943845231  1.0000
  N   N1        1.0  0.4403809160276418  0.8776561021908578  0.04400754338806627  1.0000
  N   N2        1.0  0.5596190840957549  0.8776561021908578  0.4559924562223442  1.0000
  N   N3        1.0  0.9403809156402113  0.3776561018267018  0.04400754319233172  1.0000
  N   N4        1.0  0.059619084041047585  0.3776561018267018  0.45599245642481234  1.0000
  N   N5        1.0  0.5596190841097369  0.12234389853745425  0.955992456237691  1.0000
  N   N6        1.0  0.4403809160416239  0.12234389853745425  0.544007543403413  1.0000
  N   N7        1.0  0.0596190840550296  0.6223438977144092  0.9559924564401588  1.0000
  N   N8        1.0  0.9403809156541935  0.6223438977144092  0.5440075432076784  1.0000
  N   N9        1.0  0.435498517202671  0.11829346448077502  0.8703324253203684  1.0000
  N   N10       1.0  0.5645014829486897  0.11829346448077502  0.6296675743207355  1.0000
  N   N11       1.0  0.9354985172573785  0.618293464844931  0.8703324251179003  1.0000
  N   N12       1.0  0.0645014828939824  0.618293464844931  0.6296675745232035  1.0000
  N   N13       1.0  0.5645014829347077  0.881706535060336  0.12966757430538878  1.0000
  N   N14       1.0  0.4354985171886889  0.881706535060336  0.3703324253050217  1.0000
  N   N15       1.0  0.06450148288000038  0.381706535883381  0.12966757450785688  1.0000
  N   N16       1.0  0.9354985172433964  0.381706535883381  0.37033242510255365  1.0000
  N   N17       1.0  0.38519883151966805  0.6202632235613051  0.639983678849953  1.0000
  N   N18       1.0  0.6148011683940399  0.6202632235613051  0.8600163216870681  1.0000
  N   N19       1.0  0.8851988315743754  0.12026322319714912  0.639983678647485  1.0000
  N   N20       1.0  0.11480116833933252  0.12026322319714912  0.8600163218895363  1.0000
  N   N21       1.0  0.6148011683800578  0.3797367771670069  0.36001632167172143  1.0000
  N   N22       1.0  0.38519883150568596  0.3797367771670069  0.1399836788346063  1.0000
  N   N23       1.0  0.11480116832535046  0.8797367763439619  0.3600163218741895  1.0000
  N   N24       1.0  0.8851988315603933  0.8797367763439619  0.13998367863213823  1.0000
  O   O1        1.0  0.41166846406394697  0.36118049495971855  0.6902296932111007  1.0000
  O   O2        1.0  0.5883315362918987  0.36118049495971855  0.8097703073191869  1.0000
  O   O3        1.0  0.9116684641186543  0.8611804941366736  0.6902296930086327  1.0000
  O   O4        1.0  0.08833153623719138  0.8611804941366736  0.8097703075216549  1.0000
  O   O5        1.0  0.5883315362779167  0.6388195057685934  0.30977030730384014  1.0000
  O   O6        1.0  0.411668464049965  0.6388195057685934  0.1902296931957541  1.0000
  O   O7        1.0  0.08833153622320933  0.13881950540443744  0.30977030750630824  1.0000
  O   O8        1.0  0.9116684641046722  0.13881950540443744  0.190229692993286  1.0000
