data_image0
_chemical_formula_structural       H18C36N2O2F6I6
_chemical_formula_sum              "H18 C36 N2 O2 F6 I6"
_cell_length_a       8.06443934503367
_cell_length_b       9.131433015224351
_cell_length_c       13.518772776448879
_cell_angle_alpha    94.91134189115704
_cell_angle_beta     104.7151561910045
_cell_angle_gamma    97.6280465416287

_space_group_name_H-M_alt    "P 1"
_space_group_IT_number       1

loop_
  _space_group_symop_operation_xyz
  'x, y, z'

loop_
  _atom_site_type_symbol
  _atom_site_label
  _atom_site_symmetry_multiplicity
  _atom_site_fract_x
  _atom_site_fract_y
  _atom_site_fract_z
  _atom_site_occupancy
  H   H1        1.0  0.8630462987084003  0.12915533720741768  0.3255705398337742  1.0000
  H   H2        1.0  0.1369537016499299  0.8708446624902149  0.6744294602509558  1.0000
  H   H3        1.0  0.3219716874546241  0.9853318065914772  0.5004020086069049  1.0000
  H   H4        1.0  0.6780283116612641  0.014668193097200863  0.49959799147517636  1.0000
  H   H5        1.0  0.17024480232515163  0.1266149571082918  0.15087307122123084  1.0000
  H   H6        1.0  0.8297551967907367  0.8733850425803864  0.8491269288608504  1.0000
  H   H7        1.0  0.5298337225135415  0.36868771740012785  0.45711878654083743  1.0000
  H   H8        1.0  0.4701662778447885  0.6313122822975046  0.5428812135438927  1.0000
  H   H9        1.0  0.575149384037435  0.20378188970795583  0.31335605165276964  1.0000
  H   H10       1.0  0.424850616320895  0.7962181099896766  0.6866439484319604  1.0000
  H   H11       1.0  0.06675640883138244  0.39338541789092507  0.623042230371609  1.0000
  H   H12       1.0  0.9332435915269477  0.6066145818067074  0.3769577697131211  1.0000
  H   H13       1.0  0.331819119809696  0.9139667254968293  0.18228257668287914  1.0000
  H   H14       1.0  0.6681808807035555  0.08603327530499984  0.8177174233982113  1.0000
  H   H15       1.0  0.40804045125202965  0.8380688338453752  0.3609484652717291  1.0000
  H   H16       1.0  0.5919595491063004  0.16193116585225717  0.639051534813001  1.0000
  H   H17       1.0  0.7747408540430649  0.4617718548802102  0.6128755066105704  1.0000
  H   H18       1.0  0.22525914631526514  0.5382281448174222  0.3871244934741596  1.0000
  C   C1        1.0  0.6251084243383918  0.5161063675904678  0.9060217770109549  1.0000
  C   C2        1.0  0.3748915760199384  0.48389363210716463  0.09397822307377535  1.0000
  C   C3        1.0  0.7387041276256917  0.7387207341854496  0.03222919072381914  1.0000
  C   C4        1.0  0.2612958725420429  0.2612792664725777  0.9677708085864924  1.0000
  C   C5        1.0  0.6309988014190114  0.6666491019786939  0.9381076218869655  1.0000
  C   C6        1.0  0.3690011989393188  0.3333508977189384  0.061892378197764705  1.0000
  C   C7        1.0  0.831423750152631  0.5008644995589514  0.07153102960214171  1.0000
  C   C8        1.0  0.16857624896325735  0.4991355001297268  0.9284689704799396  1.0000
  C   C9        1.0  0.7259112615026984  0.4362989392757993  0.9749885755708422  1.0000
  C   C10       1.0  0.27408873885563173  0.563701060421833  0.025011424513887957  1.0000
  C   C11       1.0  0.8384954837018233  0.6532675434838613  0.09711758938629898  1.0000
  C   C12       1.0  0.16150451556898657  0.3467324573090135  0.9028824106921428  1.0000
  C   C13       1.0  0.9847603327003854  0.25889817332816273  0.47460553908383296  1.0000
  C   C14       1.0  0.015239667657944643  0.7411018263694696  0.5253944610008972  1.0000
  C   C15       1.0  0.8446245873059017  0.20380278614707922  0.3877817094009392  1.0000
  C   C16       1.0  0.15537541305242827  0.7961972135505531  0.6122182906837909  1.0000
  C   C17       1.0  0.1998181648481506  0.13042198535300742  0.39707081009593775  1.0000
  C   C18       1.0  0.8001818351646627  0.869578014200823  0.6029291892180133  1.0000
  C   C19       1.0  0.2906437387401702  0.012177676708802309  0.4215370291095099  1.0000
  C   C20       1.0  0.7093562614275644  0.987822323949225  0.5784629702008015  1.0000
  C   C21       1.0  0.1593772032906353  0.21970675188661268  0.48438466418556597  1.0000
  C   C22       1.0  0.8406227958252532  0.7802932478020655  0.5156153358965154  1.0000
  C   C23       1.0  0.2055931205832881  0.09184982404877957  0.22762825343889806  1.0000
  C   C24       1.0  0.7944068797750421  0.9081501756488529  0.7723717466458321  1.0000
  C   C25       1.0  0.6573092057800597  0.3377836621985762  0.46201645150945825  1.0000
  C   C26       1.0  0.3426907945782705  0.6622163374990563  0.5379835485752719  1.0000
  C   C27       1.0  0.6821473768138748  0.24454134015811063  0.3813884197331186  1.0000
  C   C28       1.0  0.3178526224569349  0.7554586606347642  0.618611580345323  1.0000
  C   C29       1.0  0.9578381564582354  0.3516994324169268  0.5558315953900274  1.0000
  C   C30       1.0  0.042161844055016044  0.6483005683849025  0.44416840469106317  1.0000
  C   C31       1.0  0.29578093619680385  0.9724456936430768  0.24518636123173068  1.0000
  C   C32       1.0  0.7042190641615261  0.02755430605455563  0.7548136388529993  1.0000
  C   C33       1.0  0.33778849714000014  0.9308601851796748  0.34409804368573127  1.0000
  C   C34       1.0  0.6622115021308094  0.06913981561320005  0.6559019563927103  1.0000
  C   C35       1.0  0.7948944981220849  0.3902597613827607  0.5495875801333872  1.0000
  C   C36       1.0  0.20510550223624532  0.6097402383148717  0.45041241995134296  1.0000
  N   N1        1.0  0.15608205878842468  0.16977332787736735  0.30093149391837853  1.0000
  N   N2        1.0  0.8439179415699053  0.830226671820265  0.6990685061663515  1.0000
  O   O1        1.0  0.27876607775264034  0.25419141653135696  0.5651967751699096  1.0000
  O   O2        1.0  0.7212339224150943  0.7458085841266703  0.43480322414040184  1.0000
  F   F1        1.0  0.5294116688848653  0.7465086845492505  0.8750873526519864  1.0000
  F   F2        1.0  0.4705883303859443  0.2534913162436244  0.12491264742645519  1.0000
  F   F3        1.0  0.9432276922082616  0.7200262268916622  0.1889648263120198  1.0000
  F   F4        1.0  0.056772308150068486  0.2799737728059702  0.8110351737727103  1.0000
  F   F5        1.0  0.7204138299274041  0.28896161788628766  0.9473543736274774  1.0000
  F   F6        1.0  0.279586170430926  0.7110383818113447  0.052645626457252646  1.0000
  I   I1        1.0  0.9644300727040163  0.3730201702784507  0.17840631252036757  1.0000
  I   I2        1.0  0.03556992656679345  0.6269798305144241  0.821593687558074  1.0000
  I   I3        1.0  0.47512226462347007  0.41487285504059035  0.7602345218214842  1.0000
  I   I4        1.0  0.5248777344924183  0.5851271446480877  0.23976547826059708  1.0000
  I   I5        1.0  0.7529282680454983  0.9664373694346233  0.07469916559487569  1.0000
  I   I6        1.0  0.24707173072487318  0.033562630110252775  0.9253008337164266  1.0000
