data_image0
_chemical_formula_structural       H120C72N8O28Cl4
_chemical_formula_sum              "H120 C72 N8 O28 Cl4"
_cell_length_a       13.930385607765759
_cell_length_b       7.816071821344638
_cell_length_c       19.643496506641636
_cell_angle_alpha    90.0
_cell_angle_beta     105.72770884530398
_cell_angle_gamma    90.0

_space_group_name_H-M_alt    "P 1"
_space_group_IT_number       1

loop_
  _space_group_symop_operation_xyz
  'x, y, z'

loop_
  _atom_site_type_symbol
  _atom_site_label
  _atom_site_symmetry_multiplicity
  _atom_site_fract_x
  _atom_site_fract_y
  _atom_site_fract_z
  _atom_site_occupancy
  H   H1        1.0  0.2835697512763734  0.9895343142675261  0.49680020275504055  1.0000
  H   H2        1.0  0.7164302480810449  0.48953431435354366  0.0031997971378036664  1.0000
  H   H3        1.0  0.7164302484415592  0.010465686839853968  0.5031997972653022  1.0000
  H   H4        1.0  0.2835697516368879  0.5104656867538365  0.9968002028825391  1.0000
  H   H5        1.0  0.5760555022830539  0.637499704953171  0.5903885473615783  1.0000
  H   H6        1.0  0.42394449779539317  0.13749970503918843  0.9096114527862631  1.0000
  H   H7        1.0  0.42394449815079194  0.3625002948747941  0.4096114526537677  1.0000
  H   H8        1.0  0.5760555019225395  0.8625002947887767  0.09038854723407964  1.0000
  H   H9        1.0  0.29582883343517374  0.07471633620423074  0.2948419343523061  1.0000
  H   H10       1.0  0.7041711659222445  0.5747163361182133  0.20515806554053811  1.0000
  H   H11       1.0  0.7041711662827589  0.9252836636237344  0.7051580656680367  1.0000
  H   H12       1.0  0.2958288337956883  0.42528366370975185  0.7948419344798048  1.0000
  H   H13       1.0  0.6768993001856931  0.5799976220305654  0.41064716478349367  1.0000
  H   H14       1.0  0.32310070009656633  0.07999762211658289  0.08935283563320508  1.0000
  H   H15       1.0  0.32310070024815274  0.42000237779739963  0.5893528352318523  1.0000
  H   H16       1.0  0.6768992996213664  0.9200023789907973  0.9106471643871376  1.0000
  H   H17       1.0  0.8871334442277322  0.3101606721908226  0.148877180339408  1.0000
  H   H18       1.0  0.11286655605452722  0.8101606721048051  0.35112282007729073  1.0000
  H   H19       1.0  0.11286655549020048  0.6898393289165575  0.8511228196809348  1.0000
  H   H20       1.0  0.8871334443793187  0.18983932772315992  0.6488771799380552  1.0000
  H   H21       1.0  0.8951535823400044  0.11352400672379587  0.19697016918687102  1.0000
  H   H22       1.0  0.10484641773332698  0.6135240066377784  0.30302983070097633  1.0000
  H   H23       1.0  0.10484641809384145  0.8864759943835844  0.8030298308284749  1.0000
  H   H24       1.0  0.8951535819846057  0.38647599446960174  0.6969701693193665  1.0000
  H   H25       1.0  0.9563081340748708  0.13471075804659927  0.12720855177575188  1.0000
  H   H26       1.0  0.04369186528254739  0.6347107579605817  0.37279144811709236  1.0000
  H   H27       1.0  0.043691865643061906  0.8652892417813659  0.872791448244591  1.0000
  H   H28       1.0  0.9563081344353853  0.36528924186738326  0.6272085519032504  1.0000
  H   H29       1.0  0.12735387434367593  0.09130129639433544  0.2054247827257137  1.0000
  H   H30       1.0  0.8726461257296556  0.591301296308318  0.29457521716213364  1.0000
  H   H31       1.0  0.8726461253742568  0.9086987034336296  0.7945752172946292  1.0000
  H   H32       1.0  0.12735387470419038  0.4086987035196471  0.7054247828532123  1.0000
  H   H33       1.0  0.05584061457216725  0.027239767605330475  0.2644124214704851  1.0000
  H   H34       1.0  0.9441593857100923  0.5272397675193131  0.23558757894621374  1.0000
  H   H35       1.0  0.9441593858616787  0.9727602322226346  0.7355875785448609  1.0000
  H   H36       1.0  0.0558406140078404  0.47276023230865205  0.7644124210741291  1.0000
  H   H37       1.0  0.19948216021559445  0.33373925286567313  0.2900853432672833  1.0000
  H   H38       1.0  0.8005178398577368  0.8337392527796557  0.209914656620564  1.0000
  H   H39       1.0  0.8005178395023382  0.666260746962292  0.7099146567530595  1.0000
  H   H40       1.0  0.19948216057610887  0.16626074704830945  0.7900853433947819  1.0000
  H   H41       1.0  0.14166101365222533  0.2441089454666452  0.35229422382268627  1.0000
  H   H42       1.0  0.8583389864211061  0.7441089453806277  0.14770577606516108  1.0000
  H   H43       1.0  0.8583389867816206  0.755891055640735  0.6477057761926596  1.0000
  H   H44       1.0  0.1416610132968266  0.2558910544473374  0.8522942239551817  1.0000
  H   H45       1.0  0.5676443959608594  0.7476746099032966  0.3678860951800226  1.0000
  H   H46       1.0  0.43235560411247215  0.24767460998931398  0.13211390470782483  1.0000
  H   H47       1.0  0.4323556044729866  0.2523253899246686  0.6321139048353234  1.0000
  H   H48       1.0  0.5676443956054606  0.7523253898386512  0.8678860953125181  1.0000
  H   H49       1.0  0.42111277444732553  0.9273953138717436  0.32293584615666343  1.0000
  H   H50       1.0  0.5788872256260058  0.427395313957761  0.17706415373118392  1.0000
  H   H51       1.0  0.5788872252706071  0.07260468595622155  0.6770641538636792  1.0000
  H   H52       1.0  0.42111277480783993  0.5726046858702041  0.8229358462841619  1.0000
  H   H53       1.0  0.789957224630125  0.35766915579840014  0.4568053864086502  1.0000
  H   H54       1.0  0.2100427754432065  0.8576691557123827  0.04319461347919722  1.0000
  H   H55       1.0  0.21004277508780778  0.64233084530898  0.5431946136116927  1.0000
  H   H56       1.0  0.7899572249906395  0.14233084411558244  0.9568053865361487  1.0000
  H   H57       1.0  0.7800531570768547  0.40033983457711986  0.5437756900337211  1.0000
  H   H58       1.0  0.21994684300159242  0.9003398344911024  0.9562243101141203  1.0000
  H   H59       1.0  0.21994684264107792  0.5996601652508452  0.45622430998662167  1.0000
  H   H60       1.0  0.7800531574322536  0.09966016533686269  0.04377568990122563  1.0000
  H   H61       1.0  0.8731034816579749  0.6781406480331122  0.5432168252339651  1.0000
  H   H62       1.0  0.12689651842047228  0.1781406481191297  0.9567831749138763  1.0000
  H   H63       1.0  0.126896518775871  0.32185935179485287  0.45678317478138086  1.0000
  H   H64       1.0  0.8731034812974606  0.8218593517088354  0.043216825106466565  1.0000
  H   H65       1.0  0.9429239397024305  0.48856243485017786  0.537799250151947  1.0000
  H   H66       1.0  0.057076060376016736  0.9885624347641604  0.9622007499958944  1.0000
  H   H67       1.0  0.0570760600155023  0.5114375649777873  0.4622007498683959  1.0000
  H   H68       1.0  0.9429239400578292  0.011437565063804726  0.03779925001945149  1.0000
  H   H69       1.0  0.9022339660495565  0.8305144129142943  0.3825369413558984  1.0000
  H   H70       1.0  0.09776603330786177  0.3305144130003117  0.11746305853694589  1.0000
  H   H71       1.0  0.09776603366837622  0.16948558691367083  0.6174630586644444  1.0000
  H   H72       1.0  0.9022339664100709  0.6694855868276534  0.8825369414833969  1.0000
  H   H73       1.0  0.908509179890356  0.8873362027022489  0.47226127052103894  1.0000
  H   H74       1.0  0.09149082018297568  0.38733620278826625  0.027738729366808414  1.0000
  H   H75       1.0  0.09149081982757695  0.1126637971257163  0.5277387294993039  1.0000
  H   H76       1.0  0.9085091795349571  0.6126637970396989  0.9722612706535345  1.0000
  H   H77       1.0  0.7930915303113222  0.8152628718941028  0.41305746635536544  1.0000
  H   H78       1.0  0.2069084697620094  0.3152628719801203  0.0869425335324819  1.0000
  H   H79       1.0  0.20690847012252386  0.1847371292132773  0.5869425336599805  1.0000
  H   H80       1.0  0.7930915299559234  0.6847371291272599  0.913057466487861  1.0000
  H   H81       1.0  0.7671505353010128  0.3005552678757067  0.34735193956064253  1.0000
  H   H82       1.0  0.23284946405640555  0.8005552677896893  0.1526480603322018  1.0000
  H   H83       1.0  0.23284946441691995  0.6994447319522584  0.6526480604597003  1.0000
  H   H84       1.0  0.7671505356615274  0.19944473203827587  0.8473519396881412  1.0000
  H   H85       1.0  0.7806114392407347  0.08070402683319795  0.3722220340697927  1.0000
  H   H86       1.0  0.21938856083259675  0.5807040267471806  0.12777796581805465  1.0000
  H   H87       1.0  0.2193885611931112  0.9192959729947671  0.6277779659455532  1.0000
  H   H88       1.0  0.780611438885336  0.4192959730807846  0.8722220342022882  1.0000
  H   H89       1.0  0.9422642943535733  0.22900481609086235  0.41809461036554013  1.0000
  H   H90       1.0  0.05773570571975821  0.7290048160048449  0.08190538952230725  1.0000
  H   H91       1.0  0.05773570536435947  0.7709951837371027  0.5819053896548028  1.0000
  H   H92       1.0  0.9422642939981745  0.27099518382312027  0.9180946104980358  1.0000
  H   H93       1.0  0.9399807015363857  0.3047033515603346  0.33237338239713293  1.0000
  H   H94       1.0  0.06001929853694577  0.8047033514743172  0.16762661749071447  1.0000
  H   H95       1.0  0.060019298897460174  0.6952966482676305  0.667626617618213  1.0000
  H   H96       1.0  0.9399807011809869  0.19529664835364793  0.8323733825296283  1.0000
  H   H97       1.0  0.9532979254319509  0.08209616603671517  0.35124893908014954  1.0000
  H   H98       1.0  0.04670207485030861  0.5820961672301128  0.14875106133654925  1.0000
  H   H99       1.0  0.0467020742859818  0.91790383379125  0.6487510609401933  1.0000
  H   H100      1.0  0.9532979255835373  0.41790383387726737  0.8512489386787967  1.0000
  H   H101      1.0  0.6522422526869108  0.0662943818639141  0.18767047317468663  1.0000
  H   H102      1.0  0.3477577473864206  0.5662943817778967  0.3123295267131608  1.0000
  H   H103      1.0  0.34775774703102186  0.9337056179640509  0.8123295268456562  1.0000
  H   H104      1.0  0.6522422530474253  0.43370561805006846  0.6876704733021851  1.0000
  H   H105      1.0  0.6814487995803131  0.9171737893225672  0.2592489965822072  1.0000
  H   H106      1.0  0.31855120070194654  0.4171737894085846  0.2407510038344916  1.0000
  H   H107      1.0  0.31855120013761967  0.08282621050539794  0.7407510034381356  1.0000
  H   H108      1.0  0.6814487997318993  0.5828262116987956  0.7592489961808543  1.0000
  H   H109      1.0  0.5219596496844997  0.08480302703845558  0.24808778770281426  1.0000
  H   H110      1.0  0.4780403503888319  0.5848030269524381  0.2519122121850332  1.0000
  H   H111      1.0  0.47804035074934637  0.9151969740689246  0.7519122123125317  1.0000
  H   H112      1.0  0.5219596493291009  0.41519697415494206  0.7480877878353097  1.0000
  H   H113      1.0  0.5938566942545362  0.27371748608522245  0.2729409713018815  1.0000
  H   H114      1.0  0.40614330581879515  0.7737174872786201  0.22705902858596588  1.0000
  H   H115      1.0  0.40614330546339644  0.7262825137427426  0.7270590287184613  1.0000
  H   H116      1.0  0.5938566946150509  0.22628251382876008  0.7729409714293801  1.0000
  H   H117      1.0  0.6076040926674343  0.10132402543145463  0.3330362965581747  1.0000
  H   H118      1.0  0.3923959076148252  0.6013240253454372  0.16696370385852408  1.0000
  H   H119      1.0  0.39239590776641153  0.8986759743965104  0.6669637034571712  1.0000
  H   H120      1.0  0.6076040921031075  0.3986759744825279  0.8330362961618187  1.0000
  C   C1        1.0  0.9355030869178659  0.20126905253147562  0.17053131722334505  1.0000
  C   C2        1.0  0.06449691336439374  0.7012690524454581  0.3294686831933537  1.0000
  C   C3        1.0  0.06449691280006692  0.7987309472964894  0.8294686827969977  1.0000
  C   C4        1.0  0.9355030870694522  0.29873094738250694  0.6705313168219922  1.0000
  C   C5        1.0  0.09293814104402515  0.13663164878854453  0.24666729376813337  1.0000
  C   C6        1.0  0.9070618590293062  0.6366316487025271  0.253332706119714  1.0000
  C   C7        1.0  0.9070618586739075  0.8633683510394207  0.7533327062522094  1.0000
  C   C8        1.0  0.0929381414045396  0.363368351125438  0.7466672938956319  1.0000
  C   C9        1.0  0.17230791435064147  0.21438845219205335  0.3079163799668766  1.0000
  C   C10       1.0  0.82769208572269  0.7143884521060359  0.19208361992097076  1.0000
  C   C11       1.0  0.8276920860832044  0.7856115489153268  0.6920836200484694  1.0000
  C   C12       1.0  0.1723079139952427  0.2856115490013442  0.8079163800993721  1.0000
  C   C13       1.0  0.2846612033219668  0.03303916160222467  0.39648674232095127  1.0000
  C   C14       1.0  0.7153387969602928  0.5330391615162072  0.10351325809574756  1.0000
  C   C15       1.0  0.715338796395966  0.9669608382257405  0.6035132576993917  1.0000
  C   C16       1.0  0.28466120347355317  0.4669608383117579  0.8964867419195983  1.0000
  C   C17       1.0  0.375680906451468  0.9266150395677965  0.4198320297928755  1.0000
  C   C18       1.0  0.6243190936218634  0.4266150396538139  0.08016797009497188  1.0000
  C   C19       1.0  0.624319093982378  0.07338496026016862  0.5801679702224705  1.0000
  C   C20       1.0  0.3756809060960693  0.5733849601741512  0.9198320299253709  1.0000
  C   C21       1.0  0.40060067655835174  0.8690090604658105  0.49174098770459185  1.0000
  C   C22       1.0  0.5993993235149797  0.369009060551828  0.008259012183255456  1.0000
  C   C23       1.0  0.5993993238754942  0.13099093936215453  0.5082590123107541  1.0000
  C   C24       1.0  0.400600676202953  0.630990939276137  0.9917409878370873  1.0000
  C   C25       1.0  0.4881643147086685  0.7621833852308615  0.5184518190847056  1.0000
  C   C26       1.0  0.5118356853697786  0.26218338531687885  0.9815481810631359  1.0000
  C   C27       1.0  0.5118356850092641  0.2378166145971037  0.48154818093563706  1.0000
  C   C28       1.0  0.4881643150640673  0.7378166145110863  0.018451818952210205  1.0000
  C   C29       1.0  0.5477194752066105  0.7165312023753289  0.4728584536155606  1.0000
  C   C30       1.0  0.45228052507564914  0.21653120246134638  0.027141546801138172  1.0000
  C   C31       1.0  0.45228052451132233  0.2834687987320512  0.5271415464047823  1.0000
  C   C32       1.0  0.5477194753581968  0.7834687986460338  0.9728584532142077  1.0000
  C   C33       1.0  0.5222299822682537  0.7795185713828089  0.40363530449241114  1.0000
  C   C34       1.0  0.4777700170891646  0.27951857146882625  0.09636469540043309  1.0000
  C   C35       1.0  0.47777001744967906  0.2204814284451563  0.5963646955279316  1.0000
  C   C36       1.0  0.5222299826287681  0.7204814283591389  0.9036353046199097  1.0000
  C   C37       1.0  0.43738569474599837  0.8821734725070369  0.3774355896799738  1.0000
  C   C38       1.0  0.562614305327333  0.38217347259305445  0.12256441020787352  1.0000
  C   C39       1.0  0.5626143056878474  0.11782652732092808  0.622564410335372  1.0000
  C   C40       1.0  0.43738569439059966  0.6178265272349107  0.8774355898124692  1.0000
  C   C41       1.0  0.635989760104969  0.6078194748705243  0.5040308600330161  1.0000
  C   C42       1.0  0.3640102399734782  0.10781947495654177  0.9959691401148254  1.0000
  C   C43       1.0  0.36401023961296375  0.39218052495744077  0.49596913998732683  1.0000
  C   C44       1.0  0.6359897604603677  0.8921805248714233  0.0040308599005205335  1.0000
  C   C45       1.0  0.7854124812333612  0.4593380155739609  0.4942298290400053  1.0000
  C   C46       1.0  0.21458751904889833  0.9593380154879434  0.005770171376693516  1.0000
  C   C47       1.0  0.21458751848457158  0.5406619842540041  0.5057701709803376  1.0000
  C   C48       1.0  0.7854124813849476  0.040661984340021634  0.9942298286386525  1.0000
  C   C49       1.0  0.8798326225157175  0.5686735244502066  0.5095131321462875  1.0000
  C   C50       1.0  0.12016737756272974  0.06867352453622401  0.990486868001554  1.0000
  C   C51       1.0  0.12016737720221525  0.43132647537775853  0.4904868678740553  1.0000
  C   C52       1.0  0.8798326228711162  0.9313264752917411  0.009513132013792046  1.0000
  C   C53       1.0  0.8747102106048258  0.7994843794724731  0.42828447599893  1.0000
  C   C54       1.0  0.12528978967743376  0.29948437955849055  0.07171552441776881  1.0000
  C   C55       1.0  0.12528978982902012  0.20051562035549197  0.5717155240164159  1.0000
  C   C56       1.0  0.874710210040499  0.7005156202694746  0.928284475602574  1.0000
  C   C57       1.0  0.8041671791554352  0.17920742183751212  0.3398623325914969  1.0000
  C   C58       1.0  0.19583282091789628  0.6792074217514947  0.16013766729635046  1.0000
  C   C59       1.0  0.1958328212784107  0.8207925779904529  0.660137667423849  1.0000
  C   C60       1.0  0.8041671788000365  0.32079257807647044  0.8398623327239925  1.0000
  C   C61       1.0  0.9165214569393207  0.1999581971255644  0.36132022077205933  1.0000
  C   C62       1.0  0.08347854313401068  0.699958197039547  0.13867977911578802  1.0000
  C   C63       1.0  0.08347854256968391  0.8000418027024007  0.6386797787194322  1.0000
  C   C64       1.0  0.9165214572998351  0.3000418027884182  0.8613202208995578  1.0000
  C   C65       1.0  0.6737251333783825  0.05513790556825507  0.24560234438259188  1.0000
  C   C66       1.0  0.3262748666949489  0.5551379054822376  0.2543976555052555  1.0000
  C   C67       1.0  0.3262748663395501  0.9448620955391251  0.754397655637751  1.0000
  C   C68       1.0  0.6737251337388971  0.4448620956251425  0.7456023445100904  1.0000
  C   C69       1.0  0.595676811596444  0.13360731885142102  0.2770338214043301  1.0000
  C   C70       1.0  0.4043231884768874  0.6336073187654035  0.2229661784835172  1.0000
  C   C71       1.0  0.4043231881214887  0.8663926822559591  0.7229661786160126  1.0000
  C   C72       1.0  0.5956768119569584  0.36639268106256156  0.7770338215318287  1.0000
  N   N1        1.0  0.2565463025669328  0.0984383047631254  0.3319978197916903  1.0000
  N   N2        1.0  0.7434536975063987  0.5984383046771079  0.16800218009615706  1.0000
  N   N3        1.0  0.7434536978669132  0.9015616963442548  0.6680021802236555  1.0000
  N   N4        1.0  0.256546302211534  0.40156169643027223  0.8319978199241858  1.0000
  N   N5        1.0  0.6945461799193381  0.5560879172233941  0.4646147294802895  1.0000
  N   N6        1.0  0.30545382015399336  0.05608791730941158  0.03538527040755785  1.0000
  N   N7        1.0  0.30545381979859465  0.44391208260457093  0.5353852705400534  1.0000
  N   N8        1.0  0.6945461802798526  0.9439120837979685  0.964614729607788  1.0000
  O   O1        1.0  0.022338890896768906  0.268684083002543  0.21947939944787792  1.0000
  O   O2        1.0  0.9776611091765626  0.7686840829165256  0.28052060043996946  1.0000
  O   O3        1.0  0.9776611095370771  0.7313159168254221  0.780520600567468  1.0000
  O   O4        1.0  0.02233889054137014  0.23131591691143955  0.7194793995803733  1.0000
  O   O5        1.0  0.2338659273184792  0.062120491098106426  0.4415097380208118  1.0000
  O   O6        1.0  0.7661340727548523  0.562120491012089  0.05849026186703564  1.0000
  O   O7        1.0  0.7661340723994535  0.9378795087298587  0.558490261999531  1.0000
  O   O8        1.0  0.23386592767899367  0.4378795088158762  0.9415097381483104  1.0000
  O   O9        1.0  0.3471039297500957  0.9089326521538815  0.5344326980144406  1.0000
  O   O10       1.0  0.6528960701194234  0.40893265223989894  0.9655673016045494  1.0000
  O   O11       1.0  0.6528960706837502  0.09106734767408362  0.4655673020009053  1.0000
  O   O12       1.0  0.3471039295985094  0.5910673488674811  0.034432698415793474  1.0000
  O   O13       1.0  0.5077173708614692  0.7105937351845507  0.584397728951985  1.0000
  O   O14       1.0  0.492282629216978  0.21059373527056816  0.9156022711958564  1.0000
  O   O15       1.0  0.49228262957237673  0.2894062646434144  0.4156022710633609  1.0000
  O   O16       1.0  0.5077173705009547  0.7894062645573969  0.08439772882448648  1.0000
  O   O17       1.0  0.6546236459467344  0.5660413928027186  0.5694742133650431  1.0000
  O   O18       1.0  0.34537635392278476  0.06604139288873606  0.9305257862539468  1.0000
  O   O19       1.0  0.3453763544871116  0.4339586070252465  0.43052578665030283  1.0000
  O   O20       1.0  0.6546236455862199  0.933958606939229  0.0694742132375446  1.0000
  O   O21       1.0  0.9030569334145954  0.6269593501709875  0.44695308001837414  1.0000
  O   O22       1.0  0.09694306665873627  0.1269593502570049  0.05304691986947328  1.0000
  O   O23       1.0  0.09694306681032265  0.37304064965697764  0.5530469194681205  1.0000
  O   O24       1.0  0.9030569330591965  0.8730406495709603  0.9469530801508695  1.0000
  O   O25       1.0  0.7710120793108094  0.13311972481606524  0.2668957170569366  1.0000
  O   O26       1.0  0.2289879209714502  0.6331197260094629  0.23310428335976213  1.0000
  O   O27       1.0  0.22898792040712337  0.8668802750118999  0.7331042829634061  1.0000
  O   O28       1.0  0.7710120794623956  0.3668802750979173  0.7668957166555838  1.0000
  Cl  Cl1       1.0  0.6693766678015418  0.5973591833239793  0.302169417148057  1.0000
  Cl  Cl2       1.0  0.33062333227178964  0.0973591821305817  0.19783058273979037  1.0000
  Cl  Cl3       1.0  0.33062333263230403  0.40264081778340083  0.6978305828672889  1.0000
  Cl  Cl4       1.0  0.669376667446143  0.9026408176973834  0.8021694172805525  1.0000
