data_image0
_chemical_formula_structural       H52C36N12O16
_chemical_formula_sum              "H52 C36 N12 O16"
_cell_length_a       5.172399522973243
_cell_length_b       29.113703291678625
_cell_length_c       7.039366012795783
_cell_angle_alpha    90.00011429126977
_cell_angle_beta     104.1822975692512
_cell_angle_gamma    89.9999400758402

_space_group_name_H-M_alt    "P 1"
_space_group_IT_number       1

loop_
  _space_group_symop_operation_xyz
  'x, y, z'

loop_
  _atom_site_type_symbol
  _atom_site_label
  _atom_site_symmetry_multiplicity
  _atom_site_fract_x
  _atom_site_fract_y
  _atom_site_fract_z
  _atom_site_occupancy
  H   H1        1.0  0.891145009248728  0.5816202373583909  0.41797575386016855  1.0000
  H   H2        1.0  0.10885506954845538  0.08162027478515897  0.08202288126804201  1.0000
  H   H3        1.0  0.10885499131830358  0.41837976266905075  0.5820242465039617  1.0000
  H   H4        1.0  0.8911449310185767  0.9183797248988017  0.9179771190960868  1.0000
  H   H5        1.0  0.12715804181940085  0.6231305849049146  0.5435363768301007  1.0000
  H   H6        1.0  0.8728421214925798  0.12313055115489921  0.9564620749847556  1.0000
  H   H7        1.0  0.8728419587476306  0.376869415122527  0.4564636235340296  1.0000
  H   H8        1.0  0.12715787708036075  0.8768694488725425  0.04353792501312801  1.0000
  H   H9        1.0  0.025904366549326898  0.7056332848110856  0.5249623317683066  1.0000
  H   H10       1.0  0.9740958104973595  0.2056332860394639  0.9750374475159892  1.0000
  H   H11       1.0  0.9740956320236134  0.29436671521635616  0.47503766822957694  1.0000
  H   H12       1.0  0.02590419006967258  0.7943667136444968  0.024962552848139842  1.0000
  H   H13       1.0  0.2739087324778254  0.7453177752881297  0.20165337227264574  1.0000
  H   H14       1.0  0.7260914586376443  0.24531780626726268  0.29834669952857384  1.0000
  H   H15       1.0  0.7260912680892061  0.254682224739312  0.7983466280914844  1.0000
  H   H16       1.0  0.2739085419395723  0.7546821937601785  0.7016532994168261  1.0000
  H   H17       1.0  0.15272676248139247  0.6620158487566903  0.12474946446802708  1.0000
  H   H18       1.0  0.8472730726578896  0.16201586686626016  0.37525030716369895  1.0000
  H   H19       1.0  0.8472732360915479  0.3379841512707513  0.8752505355298565  1.0000
  H   H20       1.0  0.15272692591505066  0.8379841331611816  0.6247496928341846  1.0000
  H   H21       1.0  0.4053575035056397  0.5881507443002764  0.23874415416592262  1.0000
  H   H22       1.0  0.5946429781083103  0.08815068648336673  0.2612552334976928  1.0000
  H   H23       1.0  0.5946424970613918  0.41184925572716524  0.7612558461982076  1.0000
  H   H24       1.0  0.40535702245872135  0.9118493135440748  0.7387447668664375  1.0000
  H   H25       1.0  0.20361301781382238  0.48051703021631725  0.02853396743505238  1.0000
  H   H26       1.0  0.7963864539744652  0.9805170466045586  0.47146641126238814  1.0000
  H   H27       1.0  0.7963869827532092  0.5194829698111243  0.9714660329290781  1.0000
  H   H28       1.0  0.20361354459847522  0.01948295342288301  0.5285335887354955  1.0000
  H   H29       1.0  0.12306830304533165  0.478248065471816  0.25630285914846757  1.0000
  H   H30       1.0  0.8769319588714839  0.9782478023593404  0.24369750686487773  1.0000
  H   H31       1.0  0.8769316975216997  0.5217519345556256  0.7436971412156627  1.0000
  H   H32       1.0  0.12306804170573267  0.021752197668100864  0.756302492080522  1.0000
  H   H33       1.0  0.5086349924543192  0.42729839441184  0.3904702351039802  1.0000
  H   H34       1.0  0.49136805654273963  0.9272980843140484  0.10952944132986477  1.0000
  H   H35       1.0  0.49136500811271283  0.5727016052721207  0.6095297652601488  1.0000
  H   H36       1.0  0.5086319420302007  0.07270191571339342  0.8904705586680188  1.0000
  H   H37       1.0  0.6317798461188477  0.43493519788563084  0.17975603454338976  1.0000
  H   H38       1.0  0.36821829410764434  0.9349354895363813  0.32024088079425894  1.0000
  H   H39       1.0  0.36822015444818373  0.5650648021418109  0.8202439658207406  1.0000
  H   H40       1.0  0.6317817064593872  0.06506451049106028  0.6797591195698712  1.0000
  H   H41       1.0  0.08202887228580844  0.39337297248779196  0.172085489259284  1.0000
  H   H42       1.0  0.9179737324952211  0.8933732935686279  0.32792317243962393  1.0000
  H   H43       1.0  0.9179711262871318  0.6066270275396497  0.8279145107385995  1.0000
  H   H44       1.0  0.08202626807181043  0.10662670645881371  0.6720768279245064  1.0000
  H   H45       1.0  0.22097191493841434  0.3985023122850824  0.9709727816213066  1.0000
  H   H46       1.0  0.7790168433109618  0.8985023289700238  0.5290306254111814  1.0000
  H   H47       1.0  0.7790280856286173  0.6014976877423591  0.0290272187428237  1.0000
  H   H48       1.0  0.22098315725607034  0.10149767071393684  0.47096937495294755  1.0000
  H   H49       1.0  0.2893867524782521  0.27963461727783784  0.10311371358387175  1.0000
  H   H50       1.0  0.7106132798647842  0.7796346392854596  0.3968858160097176  1.0000
  H   H51       1.0  0.7106132460946883  0.7203653827496038  0.8968862864140118  1.0000
  H   H52       1.0  0.28938672070224736  0.22036536074198196  0.6031141843544127  1.0000
  C   C1        1.0  0.7680001214460302  0.6488109532890622  0.3911782818763328  1.0000
  C   C2        1.0  0.23200011477188387  0.14881094897880678  0.10882050914584718  1.0000
  C   C3        1.0  0.2319998791210013  0.3511890467383793  0.6088217184877974  1.0000
  C   C4        1.0  0.7679998838010565  0.851189051048635  0.8911794908520364  1.0000
  C   C5        1.0  0.8306898475848827  0.6960144557625562  0.4345385437182774  1.0000
  C   C6        1.0  0.16931044716961258  0.19601445898563863  0.06546091174476912  1.0000
  C   C7        1.0  0.16931015298214885  0.3039855442648856  0.5654614566458529  1.0000
  C   C8        1.0  0.8306895533974189  0.803985541041803  0.9345390886193611  1.0000
  C   C9        1.0  0.4116341082515749  0.7173441499983096  0.2553961182213331  1.0000
  C   C10       1.0  0.5883660690408404  0.21734417456665758  0.24460371340159612  1.0000
  C   C11       1.0  0.5883658903315505  0.28265585002913163  0.74460388035782  1.0000
  C   C12       1.0  0.4116339315363761  0.7826558254607836  0.7553962855438038  1.0000
  C   C13       1.0  0.34827197338163884  0.6716546290185585  0.21431719286944045  1.0000
  C   C14       1.0  0.6517280106347763  0.1716546496259969  0.2856822617125512  1.0000
  C   C15       1.0  0.6517280271853927  0.32834537100888306  0.7856828074946898  1.0000
  C   C16       1.0  0.3482719899322553  0.8283453504014446  0.7143177386515791  1.0000
  C   C17       1.0  0.44812772315713156  0.5209902632244442  0.24837370514436793  1.0000
  C   C18       1.0  0.5518727706113735  0.020990246554450528  0.2516263677606963  1.0000
  C   C19       1.0  0.5518722774099  0.47900973680299747  0.7516262952197624  1.0000
  C   C20       1.0  0.44812722796156734  0.9790097531295102  0.748373632237186  1.0000
  C   C21       1.0  0.2923509435895433  0.47759657863882404  0.18702180405786947  1.0000
  C   C22       1.0  0.7076499725936497  0.9775966603367343  0.31297866826380377  1.0000
  C   C23       1.0  0.7076490549833971  0.5224034213886176  0.8129781959400141  1.0000
  C   C24       1.0  0.29235002598947574  0.022403339690707073  0.6870213303153494  1.0000
  C   C25       1.0  0.44804606162321725  0.43292504927121184  0.23148885400809788  1.0000
  C   C26       1.0  0.5519544285902689  0.9329249287683674  0.268511489571291  1.0000
  C   C27       1.0  0.5519539369497231  0.5670749507562299  0.7685111459897856  1.0000
  C   C28       1.0  0.4480455719767626  0.06707507125907425  0.7314885107928393  1.0000
  C   C29       1.0  0.27398542299466705  0.39355766460978037  0.13077833809144868  1.0000
  C   C30       1.0  0.726011861218291  0.8935577753670478  0.3692256941261725  1.0000
  C   C31       1.0  0.7260145775723645  0.6064423354176611  0.8692216622726816  1.0000
  C   C32       1.0  0.27398813934874056  0.10644222466039377  0.6307743062379578  1.0000
  C   C33       1.0  0.38831970189890413  0.3459591458598542  0.17189660571368282  1.0000
  C   C34       1.0  0.6116808071988266  0.8459592502278702  0.3281043232149723  1.0000
  C   C35       1.0  0.6116802986681273  0.6540408541675873  0.8281033946504475  1.0000
  C   C36       1.0  0.3883191933682048  0.1540407497995714  0.671895677149158  1.0000
  N   N1        1.0  0.5225488461738076  0.6378785677854248  0.2810092037269564  1.0000
  N   N2        1.0  0.47745123881086704  0.13787857981274  0.2189897015359881  1.0000
  N   N3        1.0  0.47745115439322394  0.3621214322420167  0.7189907966371738  1.0000
  N   N4        1.0  0.5225487617561645  0.8621214202147016  0.7810102988281421  1.0000
  N   N5        1.0  0.9447482280016186  0.6150518496598889  0.4543993833721066  1.0000
  N   N6        1.0  0.055252005079665906  0.11505184819711949  0.04559888907047182  1.0000
  N   N7        1.0  0.055251772565412846  0.38494815036755264  0.5456006169920237  1.0000
  N   N8        1.0  0.9447479954873657  0.8849481518303222  0.9544011112936583  1.0000
  N   N9        1.0  0.6544388095597174  0.7287018903443596  0.3666137792571941  1.0000
  N   N10       1.0  0.34556141661270356  0.22870189584961856  0.1333860975439125  1.0000
  N   N11       1.0  0.34556119101749916  0.27129810968308155  0.6333862196882059  1.0000
  N   N12       1.0  0.654438583954328  0.7712981041778231  0.8666139028202178  1.0000
  O   O1        1.0  0.294599739818382  0.5580267986125919  0.20060024820051728  1.0000
  O   O2        1.0  0.7054006577726539  0.05802673610560771  0.29939963164219474  1.0000
  O   O3        1.0  0.7054002587545583  0.4419732014148498  0.7993997517973662  1.0000
  O   O4        1.0  0.29459934279437755  0.9419732639218339  0.7006003687219354  1.0000
  O   O5        1.0  0.6888636892739893  0.5227775278395147  0.33043789145187136  1.0000
  O   O6        1.0  0.3111366748019726  0.022777514143611136  0.16956219926297006  1.0000
  O   O7        1.0  0.31113630930913627  0.4772224721879266  0.6695621071272818  1.0000
  O   O8        1.0  0.6888633237709677  0.9772224858838305  0.8304378007349134  1.0000
  O   O9        1.0  0.2245682765637687  0.31425717153532656  0.0740664019551579  1.0000
  O   O10       1.0  0.7754322770558598  0.8142572050939513  0.4259328421113599  1.0000
  O   O11       1.0  0.7754317220091723  0.6857428281486343  0.9259335980427243  1.0000
  O   O12       1.0  0.22456772151708057  0.18574279493349033  0.5740671578865237  1.0000
  O   O13       1.0  0.6072561794804804  0.3371413994675487  0.2845195301189649  1.0000
  O   O14       1.0  0.3927447793315923  0.8371414610488551  0.21547973713828006  1.0000
  O   O15       1.0  0.3927438210865517  0.6628586002164121  0.7154804702451641  1.0000
  O   O16       1.0  0.6072552212354393  0.16285853897858638  0.7845202632258501  1.0000
