data_image0
_chemical_formula_structural       H68C44N12O16
_chemical_formula_sum              "H68 C44 N12 O16"
_cell_length_a       4.973853731461489
_cell_length_b       34.2396267135205
_cell_length_c       7.347978941759947
_cell_angle_alpha    90.0
_cell_angle_beta     102.50437976592367
_cell_angle_gamma    90.0

_space_group_name_H-M_alt    "P 1"
_space_group_IT_number       1

loop_
  _space_group_symop_operation_xyz
  'x, y, z'

loop_
  _atom_site_type_symbol
  _atom_site_label
  _atom_site_symmetry_multiplicity
  _atom_site_fract_x
  _atom_site_fract_y
  _atom_site_fract_z
  _atom_site_occupancy
  H   H1        1.0  0.8900064089638167  0.39193506495504055  0.44596230736476755  1.0000
  H   H2        1.0  0.10999359113730235  0.8919350647576012  0.05403769167307966  1.0000
  H   H3        1.0  0.10999359059733044  0.6080649352341991  0.5540376923402641  1.0000
  H   H4        1.0  0.8900064084238448  0.10806493513957931  0.945962308031952  1.0000
  H   H5        1.0  0.12449501650513467  0.35671642983119944  0.5736327514403983  1.0000
  H   H6        1.0  0.8755049825217351  0.8567164299258194  0.9263672475717393  1.0000
  H   H7        1.0  0.8755049830560124  0.643283570065981  0.42636724826463346  1.0000
  H   H8        1.0  0.124495017039412  0.14328357026342037  0.07363275213329236  1.0000
  H   H9        1.0  0.023455250861955886  0.28681444550101143  0.55091627993361  1.0000
  H   H10       1.0  0.976544750218574  0.786814445303572  0.9490837207441856  1.0000
  H   H11       1.0  0.9765447507585461  0.7131855546882283  0.44908372007700115  1.0000
  H   H12       1.0  0.023455249336878425  0.21318555459360847  0.0509162803209247  1.0000
  H   H13       1.0  0.271520410621053  0.25258159624108784  0.22115235878338174  1.0000
  H   H14       1.0  0.7284795894800661  0.7525815963357078  0.27884764025446546  1.0000
  H   H15       1.0  0.7284795909994489  0.7474184036560927  0.7788476412272295  1.0000
  H   H16       1.0  0.2715204100810811  0.24741840385353203  0.7211523594505662  1.0000
  H   H17       1.0  0.15182712321048245  0.3233013908889609  0.14398725951906002  1.0000
  H   H18       1.0  0.848172876884942  0.8233013906915215  0.3560127408788658  1.0000
  H   H19       1.0  0.8481728763449701  0.6766986093002788  0.8560127415460503  1.0000
  H   H20       1.0  0.15182712267620513  0.17669860920565894  0.6439872588261659  1.0000
  H   H21       1.0  0.40929797346624247  0.38673018840977064  0.2579937713624399  1.0000
  H   H22       1.0  0.590702026629182  0.8867301885043906  0.24200622903548588  1.0000
  H   H23       1.0  0.5907020260892101  0.6132698114874099  0.7420062297026704  1.0000
  H   H24       1.0  0.4092979729319651  0.11326981139278995  0.7579937706695458  1.0000
  H   H25       1.0  0.14759072531654627  0.4826822283513358  0.2986753455734694  1.0000
  H   H26       1.0  0.8524092747788783  0.9826822281538964  0.20132465482445638  1.0000
  H   H27       1.0  0.8524092742446009  0.517317771837904  0.7013246541315623  1.0000
  H   H28       1.0  0.14759072477657434  0.017317771743284076  0.798675346240654  1.0000
  H   H29       1.0  0.20480630016000656  0.47870427318437087  0.07380889732560417  1.0000
  H   H30       1.0  0.7951936999354179  0.9787042729869314  0.42619110307232166  1.0000
  H   H31       1.0  0.7951936994011406  0.5212957270048689  0.9261911023794275  1.0000
  H   H32       1.0  0.20480629962572922  0.021295726910249026  0.5738088966327101  1.0000
  H   H33       1.0  0.6624193945183386  0.5155570560887397  0.18252125739570216  1.0000
  H   H34       1.0  0.33758060558278036  0.015557055994119842  0.31747874164214496  1.0000
  H   H35       1.0  0.33758060710216325  0.4844429438084408  0.8174787426149089  1.0000
  H   H36       1.0  0.6624193939783668  0.9844429439030605  0.6825212580628868  1.0000
  H   H37       1.0  0.5759852749433054  0.5225335819135868  0.39906625374747406  1.0000
  H   H38       1.0  0.424014725152119  0.022533582111026188  0.10093374665045171  1.0000
  H   H39       1.0  0.4240147246178416  0.4774664179835936  0.6009337459575576  1.0000
  H   H40       1.0  0.5759852744090281  0.9774664180782134  0.8990662530545799  1.0000
  H   H41       1.0  0.23549658317204128  0.5503122907166362  0.021327616111465043  1.0000
  H   H42       1.0  0.7645034169233832  0.050312290622016406  0.47867238428646075  1.0000
  H   H43       1.0  0.7645034163891058  0.4496877091805442  0.9786723835935667  1.0000
  H   H44       1.0  0.2354965846971187  0.9496877092751641  0.5213276157241504  1.0000
  H   H45       1.0  0.1296407338579636  0.5549883046036912  0.23401914309967728  1.0000
  H   H46       1.0  0.870359266237461  0.05498830450907137  0.2659808572982485  1.0000
  H   H47       1.0  0.8703592677625384  0.4450116955855485  0.765980856910934  1.0000
  H   H48       1.0  0.12964073332368628  0.9450116953881091  0.7340191424067832  1.0000
  H   H49       1.0  0.5156203205283362  0.5988247641118  0.359292779361662  1.0000
  H   H50       1.0  0.48437967957278283  0.09882476430923938  0.1407072196761852  1.0000
  H   H51       1.0  0.484379679032811  0.4011752357853805  0.6407072203433697  1.0000
  H   H52       1.0  0.5156203199883642  0.9011752358800004  0.8592927800288465  1.0000
  H   H53       1.0  0.6574851059298786  0.5919279771819719  0.16052203289057218  1.0000
  H   H54       1.0  0.34251489417124037  0.09192797708735205  0.33947796614727493  1.0000
  H   H55       1.0  0.3425148936312684  0.40807202271520854  0.8394779668144595  1.0000
  H   H56       1.0  0.6574851053899068  0.9080720228098285  0.6605220335577566  1.0000
  H   H57       1.0  0.24238711320437747  0.6217299457763626  0.9566214275789087  1.0000
  H   H58       1.0  0.7576128878818471  0.12172994568174278  0.5433785717388083  1.0000
  H   H59       1.0  0.7576128884161245  0.3782700541208178  0.04337857243170242  1.0000
  H   H60       1.0  0.2423871116793  0.8782700542154377  0.4566214279662234  1.0000
  H   H61       1.0  0.07846330943279445  0.6253002720834461  0.14291446147185435  1.0000
  H   H62       1.0  0.92153669066263  0.1253002722808855  0.3570855389260715  1.0000
  H   H63       1.0  0.9215366901283526  0.37469972781373434  0.8570855382331772  1.0000
  H   H64       1.0  0.0784633088985171  0.8746997279083542  0.6429144607789603  1.0000
  H   H65       1.0  0.2890843854167306  0.7227772217571429  0.08183574383995183  1.0000
  H   H66       1.0  0.7109156146786939  0.22277722195458222  0.41816425655797396  1.0000
  H   H67       1.0  0.7109156141444165  0.27722277814003765  0.9181642558650798  1.0000
  H   H68       1.0  0.28908438693611344  0.7772227782346575  0.5818357448127159  1.0000
  C   C1        1.0  0.7657025661511362  0.3348447787099481  0.417112739065208  1.0000
  C   C2        1.0  0.23429743394428837  0.834844778804568  0.08288726133271777  1.0000
  C   C3        1.0  0.2342974354636713  0.6651552211872324  0.5828872623054819  1.0000
  C   C4        1.0  0.7657025656168588  0.16515522109261252  0.9171127383723139  1.0000
  C   C5        1.0  0.8282182031607727  0.2947280785048725  0.4593817815024958  1.0000
  C   C6        1.0  0.17178179693465181  0.7947280785994923  0.04061821889542998  1.0000
  C   C7        1.0  0.17178179845972927  0.705271921392308  0.5406182185081154  1.0000
  C   C8        1.0  0.8282182026264954  0.20527192129768812  0.9593817808096017  1.0000
  C   C9        1.0  0.40970589668007773  0.2763889860476511  0.27641719377589785  1.0000
  C   C10       1.0  0.5902941034210413  0.7763889858502117  0.22358280526194926  1.0000
  C   C11       1.0  0.5902941049404241  0.7236110141415886  0.7235828062347133  1.0000
  C   C12       1.0  0.40970589614010583  0.2236110140469688  0.7764171944430823  1.0000
  C   C13       1.0  0.34685620318240884  0.3152121511224938  0.23548260324307627  1.0000
  C   C14       1.0  0.6531437969130155  0.8152121512171137  0.2645173971548495  1.0000
  C   C15       1.0  0.6531437984380931  0.6847878487746867  0.7645173967675349  1.0000
  C   C16       1.0  0.34685620264813155  0.18478784897212608  0.7354826025501822  1.0000
  C   C17       1.0  0.4651602428012634  0.44369856211081216  0.27326846067271077  1.0000
  C   C18       1.0  0.5348397572941611  0.943698562205432  0.2267315397252151  1.0000
  C   C19       1.0  0.534839758813544  0.5563014377863683  0.7267315406979792  1.0000
  C   C20       1.0  0.465160242266986  0.0563014379838077  0.7732684599798165  1.0000
  C   C21       1.0  0.3134864503187112  0.48153080049466374  0.22044188192032363  1.0000
  C   C22       1.0  0.6865135497824079  0.9815308002972244  0.27955811711752354  1.0000
  C   C23       1.0  0.6865135492424358  0.5184691996945759  0.779558117784708  1.0000
  C   C24       1.0  0.3134864497787393  0.018469199599956125  0.7204418825875082  1.0000
  C   C25       1.0  0.48646528009913426  0.5185556010454071  0.25004164593022243  1.0000
  C   C26       1.0  0.5135347199962902  0.018555600950787204  0.24995835446770337  1.0000
  C   C27       1.0  0.5135347194620129  0.48144439885177337  0.7499583537748092  1.0000
  C   C28       1.0  0.4864652795648569  0.9814443989463933  0.7500416452373282  1.0000
  C   C29       1.0  0.3129913810652575  0.5539977935130254  0.17251304735791284  1.0000
  C   C30       1.0  0.6870086190301671  0.05399779341840555  0.32748695304001296  1.0000
  C   C31       1.0  0.6870086184958897  0.44600220638415505  0.8274869523471188  1.0000
  C   C32       1.0  0.3129913825846404  0.946002206478775  0.672513048330677  1.0000
  C   C33       1.0  0.46253973507804613  0.5931011996687737  0.20840825307546276  1.0000
  C   C34       1.0  0.5374602650173783  0.0931011995741538  0.29159174732246307  1.0000
  C   C35       1.0  0.537460264483101  0.40689880052046606  0.7915917466295689  1.0000
  C   C36       1.0  0.4625397345437688  0.9068988003230267  0.7084082523825685  1.0000
  C   C37       1.0  0.2832734749764707  0.6259602112290759  0.10859981636130715  1.0000
  C   C38       1.0  0.7167265251189537  0.12596021142651517  0.39140018403661864  1.0000
  C   C39       1.0  0.7167265245789818  0.37403978866810467  0.8914001847038032  1.0000
  C   C40       1.0  0.2832734744421933  0.8740397887627246  0.608599815668413  1.0000
  C   C41       1.0  0.39189125255803986  0.6668592178600979  0.14983160641526183  1.0000
  C   C42       1.0  0.6081087475373846  0.16685921776547813  0.350168393982664  1.0000
  C   C43       1.0  0.6081087490624622  0.33314078232914174  0.8501683935953495  1.0000
  C   C44       1.0  0.3918912520237625  0.8331407821317023  0.6498316057223678  1.0000
  N   N1        1.0  0.5209801708654929  0.34409962318156934  0.304212317654049  1.0000
  N   N2        1.0  0.47901982922993164  0.8440996229841299  0.19578768274387676  1.0000
  N   N3        1.0  0.4790198286956543  0.6559003770076703  0.6957876820509827  1.0000
  N   N4        1.0  0.5209801703312156  0.15590037691305053  0.8042123169611549  1.0000
  N   N5        1.0  0.94222400559145  0.36359444260775253  0.48443929954576254  1.0000
  N   N6        1.0  0.05777599450397445  0.8635944424103131  0.015560700852163262  1.0000
  N   N7        1.0  0.05777599396400253  0.6364055575814872  0.5155607015193477  1.0000
  N   N8        1.0  0.9422240071165275  0.13640555748686736  0.9844392991584481  1.0000
  N   N9        1.0  0.6525981278849097  0.266733608003782  0.38913389875751586  1.0000
  N   N10       1.0  0.3474018722162094  0.7667336080984019  0.11086610028033132  1.0000
  N   N11       1.0  0.3474018716762375  0.7332663918933985  0.6108661009475158  1.0000
  N   N12       1.0  0.6525981273449377  0.23326639209083785  0.8891338994247003  1.0000
  O   O1        1.0  0.3048418432846713  0.41295587619290924  0.21791836816340096  1.0000
  O   O2        1.0  0.6951581568164478  0.9129558762875292  0.28208163087444615  1.0000
  O   O3        1.0  0.6951581562764758  0.5870441237042713  0.7820816315416306  1.0000
  O   O4        1.0  0.3048418448040542  0.08704412390171064  0.717918369136165  1.0000
  O   O5        1.0  0.7082498464957359  0.44126515211200806  0.35896550503972774  1.0000
  O   O6        1.0  0.2917501536053831  0.9412651519145687  0.14103449399811938  1.0000
  O   O7        1.0  0.29175015306541113  0.5587348480772316  0.6410344946653038  1.0000
  O   O8        1.0  0.708249845955764  0.058734847982611776  0.8589655057069122  1.0000
  O   O9        1.0  0.2251926059142215  0.6934346398883028  0.05382683702783978  1.0000
  O   O10       1.0  0.7748073941868975  0.19343463979368286  0.4461731620100074  1.0000
  O   O11       1.0  0.7748073936469255  0.30656536000887774  0.9461731626771919  1.0000
  O   O12       1.0  0.22519260537424957  0.8065653601034977  0.5538268376950243  1.0000
  O   O13       1.0  0.6094736031039675  0.675084220788906  0.26126287928725267  1.0000
  O   O14       1.0  0.3905263969914571  0.17508422098634543  0.23873712111067316  1.0000
  O   O15       1.0  0.39052639645717974  0.3249157791082744  0.738737120417779  1.0000
  O   O16       1.0  0.6094736025639955  0.8249157792028943  0.7612628799544371  1.0000
