data_image0
_chemical_formula_structural       H72C76N16O12F16I8
_chemical_formula_sum              "H72 C76 N16 O12 F16 I8"
_cell_length_a       16.359020472880452
_cell_length_b       31.289758681798673
_cell_length_c       4.365997785874309
_cell_angle_alpha    90.0
_cell_angle_beta     90.0
_cell_angle_gamma    90.0

_space_group_name_H-M_alt    "P 1"
_space_group_IT_number       1

loop_
  _space_group_symop_operation_xyz
  'x, y, z'

loop_
  _atom_site_type_symbol
  _atom_site_label
  _atom_site_symmetry_multiplicity
  _atom_site_fract_x
  _atom_site_fract_y
  _atom_site_fract_z
  _atom_site_occupancy
  H   H1        1.0  0.1465509431921303  0.7027604656085499  0.8914670485158256  1.0000
  H   H2        1.0  0.8534490572430758  0.29723953433396577  0.3914670491885595  1.0000
  H   H3        1.0  0.6465509427984499  0.7972395343052235  0.8914670485158256  1.0000
  H   H4        1.0  0.3534490570254728  0.20276046563729205  0.3914670491885595  1.0000
  H   H5        1.0  0.04538441658110306  0.7239868747590412  0.852489106165376  1.0000
  H   H6        1.0  0.9546155832428196  0.2760131251834743  0.3524891045476826  1.0000
  H   H7        1.0  0.5453844167987062  0.7760131251547321  0.852489106165376  1.0000
  H   H8        1.0  0.45461558363650006  0.22398687478778348  0.3524891045476826  1.0000
  H   H9        1.0  0.10574234581267776  0.6653433144599524  0.36856268118279917  1.0000
  H   H10       1.0  0.8942576540112449  0.3346566854825632  0.8685626828004925  1.0000
  H   H11       1.0  0.6057423460302809  0.8346566857734145  0.36856268118279917  1.0000
  H   H12       1.0  0.39425765440492533  0.1653433144886946  0.8685626828004925  1.0000
  H   H13       1.0  0.004779221355557951  0.6861139418914146  0.33423210719924307  1.0000
  H   H14       1.0  0.9952207784683647  0.31388605805110104  0.8342321065265093  1.0000
  H   H15       1.0  0.504779221573161  0.8138860580223588  0.33423210719924307  1.0000
  H   H16       1.0  0.4952207788620452  0.1861139419201568  0.8342321065265093  1.0000
  H   H17       1.0  0.0894350204173555  0.6286236167568076  0.8627731608539214  1.0000
  H   H18       1.0  0.9105649794065671  0.3713763835053015  0.3627731615266553  1.0000
  H   H19       1.0  0.5894350206349587  0.8713763834765593  0.8627731608539214  1.0000
  H   H20       1.0  0.41056497980024764  0.12862361678554973  0.3627731615266553  1.0000
  H   H21       1.0  0.9873911049122776  0.647212488148083  0.8396426291970492  1.0000
  H   H22       1.0  0.012608894911645078  0.35278751211402604  0.339642629869783  1.0000
  H   H23       1.0  0.4873911046946745  0.8527875120852838  0.8396426291970492  1.0000
  H   H24       1.0  0.5126088951292481  0.1472124878572318  0.339642629869783  1.0000
  H   H25       1.0  0.051802590589385404  0.5902625794536269  0.36164950085603553  1.0000
  H   H26       1.0  0.9481974092345372  0.4097374204888888  0.8616495001833017  1.0000
  H   H27       1.0  0.5518025901957049  0.9097374204601466  0.36164950085603553  1.0000
  H   H28       1.0  0.4481974096282177  0.09026257948236906  0.8616495001833017  1.0000
  H   H29       1.0  0.006550561519111017  0.5696221508530802  0.03255348421381258  1.0000
  H   H30       1.0  0.9934494383048117  0.4303778490894354  0.5325534858315059  1.0000
  H   H31       1.0  0.5065505617367141  0.9303778490606932  0.03255348421381258  1.0000
  H   H32       1.0  0.49344943808720854  0.06962215088182241  0.5325534858315059  1.0000
  H   H33       1.0  0.8538139831266212  0.5736140205657942  0.6849073972677655  1.0000
  H   H34       1.0  0.14618601669730158  0.42638597937672146  0.18490739794049937  1.0000
  H   H35       1.0  0.353813982909018  0.9263859793479793  0.6849073972677655  1.0000
  H   H36       1.0  0.6461860169149046  0.07361402059453634  0.18490739794049937  1.0000
  H   H37       1.0  0.9402966629634347  0.5417411154359719  0.5636789367970718  1.0000
  H   H38       1.0  0.05970333686048792  0.4582588845065437  0.06367893746980564  1.0000
  H   H39       1.0  0.4402966627458317  0.9582588844778015  0.5636789367970718  1.0000
  H   H40       1.0  0.5597033370780911  0.04174111546471414  0.06367893746980564  1.0000
  H   H41       1.0  0.8516910968537191  0.5464914313943516  0.3317598704897051  1.0000
  H   H42       1.0  0.14830890297020352  0.4535085685481639  0.8317598698169714  1.0000
  H   H43       1.0  0.35169109663611603  0.9535085685194217  0.3317598704897051  1.0000
  H   H44       1.0  0.6483089031878067  0.04649143142309391  0.8317598698169714  1.0000
  H   H45       1.0  0.9531600871732675  0.835245695749088  0.4331080254135607  1.0000
  H   H46       1.0  0.04683991265065517  0.16475430419342757  0.9331080247408268  1.0000
  H   H47       1.0  0.4531600869556644  0.6647543041646854  0.4331080254135607  1.0000
  H   H48       1.0  0.5468399128682583  0.3352456957778302  0.9331080247408268  1.0000
  H   H49       1.0  0.03107254745739046  0.8753231368298166  0.47225395914558493  1.0000
  H   H50       1.0  0.9689274523665322  0.12467686311269907  0.9722539584728511  1.0000
  H   H51       1.0  0.53107254706371  0.6246768630839569  0.47225395914558493  1.0000
  H   H52       1.0  0.46892745276021264  0.3753231368585588  0.9722539584728511  1.0000
  H   H53       1.0  0.9989105770171266  0.8448863210753381  0.7988748325261774  1.0000
  H   H54       1.0  0.001089423418079626  0.15511367886717753  0.2988748309084841  1.0000
  H   H55       1.0  0.49891057679952344  0.6551136788384354  0.7988748325261774  1.0000
  H   H56       1.0  0.5010894230243992  0.3448863211040803  0.2988748309084841  1.0000
  H   H57       1.0  0.29381946480036814  0.8448635800881916  0.03185577428600281  1.0000
  H   H58       1.0  0.7061805350235545  0.15513641985432405  0.531855773613269  1.0000
  H   H59       1.0  0.7938194644066877  0.6551364198255819  0.03185577428600281  1.0000
  H   H60       1.0  0.20618053541723497  0.34486358011693374  0.531855773613269  1.0000
  H   H61       1.0  0.34288033316534805  0.7398323785560523  0.847213856124133  1.0000
  H   H62       1.0  0.6571196672698582  0.2601676213864633  0.34721385679686684  1.0000
  H   H63       1.0  0.8428803327716676  0.7601676213577212  0.847213856124133  1.0000
  H   H64       1.0  0.157119667052255  0.2398323785847945  0.34721385679686684  1.0000
  H   H65       1.0  0.3939946765568854  0.7900447316130905  0.8658650680563655  1.0000
  H   H66       1.0  0.6060053232670373  0.20995526832942513  0.36586506872909946  1.0000
  H   H67       1.0  0.8939946767744885  0.709955268300683  0.8658650680563655  1.0000
  H   H68       1.0  0.10600532366071773  0.29004473164183264  0.36586506872909946  1.0000
  H   H69       1.0  0.37483520728917485  0.7651254278904458  0.5010606640887058  1.0000
  H   H70       1.0  0.6251647931460314  0.23487457237166323  0.0010606624710123743  1.0000
  H   H71       1.0  0.8748352068954944  0.734874572342921  0.5010606640887058  1.0000
  H   H72       1.0  0.12516479292842825  0.2651254275995946  0.0010606624710123743  1.0000
  C   C1        1.0  0.09132120792174506  0.7125195204195934  0.015412284499481234  1.0000
  C   C2        1.0  0.9086787925134612  0.2874804795229222  0.5154122861171746  1.0000
  C   C3        1.0  0.5913212075280646  0.78748047949418  0.015412284499481234  1.0000
  C   C4        1.0  0.4086787922958581  0.21251952044833564  0.5154122861171746  1.0000
  C   C5        1.0  0.05839946539487294  0.6752901239948258  0.20385779692322162  1.0000
  C   C6        1.0  0.9416005350403334  0.3247098759476899  0.7038577985409149  1.0000
  C   C7        1.0  0.5583994650011924  0.8247098759189477  0.20385779692322162  1.0000
  C   C8        1.0  0.44160053482273015  0.17529012402356792  0.7038577985409149  1.0000
  C   C9        1.0  0.03582680215918836  0.6375119112568792  7.262944590259325e-05  1.0000
  C   C10       1.0  0.9641731982760179  0.3624880886856365  0.5000726310635959  1.0000
  C   C11       1.0  0.5358268017655079  0.8624880886568943  7.262944590259325e-05  1.0000
  C   C12       1.0  0.4641731980584147  0.13751191128562137  0.5000726310635959  1.0000
  C   C13       1.0  0.007909741308442556  0.5983857159272825  0.1787864122436071  1.0000
  C   C14       1.0  0.9920902585154802  0.4016142840152332  0.6787864115708733  1.0000
  C   C15       1.0  0.5079097415260456  0.901614283986491  0.1787864122436071  1.0000
  C   C16       1.0  0.492090258297877  0.09838571595602463  0.6787864115708733  1.0000
  C   C17       1.0  0.9248161878078578  0.6024013972649942  0.32635651685624106  1.0000
  C   C18       1.0  0.07518381201606483  0.39759860267752156  0.8263565161835073  1.0000
  C   C19       1.0  0.42481618820153827  0.8975986026487793  0.32635651685624106  1.0000
  C   C20       1.0  0.5751838116223844  0.10240139729373629  0.8263565161835073  1.0000
  C   C21       1.0  0.8919618044484754  0.563856352470463  0.4909691404185496  1.0000
  C   C22       1.0  0.10803819598673081  0.43614364747205264  0.9909691397458157  1.0000
  C   C23       1.0  0.3919618042308723  0.9361436477629039  0.4909691404185496  1.0000
  C   C24       1.0  0.6080381955930504  0.06385635249920513  0.9909691397458157  1.0000
  C   C25       1.0  0.05153624334645461  0.7783899293594658  0.27709550241050634  1.0000
  C   C26       1.0  0.9484637564774681  0.22161007058304982  0.7770955040281997  1.0000
  C   C27       1.0  0.5515362435640577  0.7216100705543076  0.27709550241050634  1.0000
  C   C28       1.0  0.44846375687114853  0.278389929388208  0.7770955040281997  1.0000
  C   C29       1.0  0.009641260016849212  0.8439560735686057  0.5511401466545026  1.0000
  C   C30       1.0  0.9903587398070736  0.1560439263739099  0.0511401450368092  1.0000
  C   C31       1.0  0.5096412602344523  0.6560439263451677  0.5511401466545026  1.0000
  C   C32       1.0  0.49035873958947035  0.3439560735973479  0.0511401450368092  1.0000
  C   C33       1.0  0.14686063288341708  0.8126913179037095  0.6083315247188404  1.0000
  C   C34       1.0  0.8531393669405056  0.1873086820388061  0.10833152539157433  1.0000
  C   C35       1.0  0.6468606331010202  0.6873086820100639  0.6083315247188404  1.0000
  C   C36       1.0  0.35313936733418605  0.3126913179324517  0.10833152539157433  1.0000
  C   C37       1.0  0.20630701181619968  0.7822276249844516  0.5429490499673478  1.0000
  C   C38       1.0  0.7936929880077229  0.21777237495806404  0.042949050640081636  1.0000
  C   C39       1.0  0.7063070120338029  0.7177723749293219  0.5429490499673478  1.0000
  C   C40       1.0  0.29369298779011993  0.28222762501319376  0.042949050640081636  1.0000
  C   C41       1.0  0.19342002873860717  0.7478041003112954  0.3373223034525832  1.0000
  C   C42       1.0  0.8065799710853155  0.25219589963122024  0.8373223027798494  1.0000
  C   C43       1.0  0.6934200289562102  0.752195899602478  0.3373223034525832  1.0000
  C   C44       1.0  0.30657997147899596  0.24780410034003758  0.8373223027798494  1.0000
  C   C45       1.0  0.25229296257939593  0.8289634437189903  0.8745441746107937  1.0000
  C   C46       1.0  0.7477070372445268  0.17103655622352537  0.37454417299310033  1.0000
  C   C47       1.0  0.752292962796999  0.6710365561947832  0.8745441746107937  1.0000
  C   C48       1.0  0.24770703702692362  0.32896344374773245  0.37454417299310033  1.0000
  C   C49       1.0  0.35129829866812934  0.7706546469476909  0.7325356761168256  1.0000
  C   C50       1.0  0.6487017011557933  0.2293453529948248  0.23253567678955936  1.0000
  C   C51       1.0  0.8512982988857325  0.7293453529660826  0.7325356761168256  1.0000
  C   C52       1.0  0.14870170154947374  0.27065464697643304  0.23253567678955936  1.0000
  C   C53       1.0  0.3048278592392982  0.576108567768723  0.8783472182251814  1.0000
  C   C54       1.0  0.6951721405846245  0.4238914321737926  0.37834721889791517  1.0000
  C   C55       1.0  0.8048278594569013  0.9238914321450504  0.8783472182251814  1.0000
  C   C56       1.0  0.19517214036702135  0.07610856779746522  0.37834721889791517  1.0000
  C   C57       1.0  0.37377416698857896  0.5519479100376119  0.9541718856290623  1.0000
  C   C58       1.0  0.6262258328353437  0.4480520902244971  0.4541718840113689  1.0000
  C   C59       1.0  0.8737741672061821  0.948052090195755  0.9541718856290623  1.0000
  C   C60       1.0  0.12622583322902417  0.05194791006635411  0.4541718840113689  1.0000
  C   C61       1.0  0.3832543800769542  0.5100162903871475  0.850436739114483  1.0000
  C   C62       1.0  0.6167456197469685  0.4899837095553682  0.35043673978721684  1.0000
  C   C63       1.0  0.8832543802945573  0.989983709526626  0.850436739114483  1.0000
  C   C64       1.0  0.11674561952936537  0.01001629041588965  0.35043673978721684  1.0000
  C   C65       1.0  0.3248123803505696  0.49080951490154456  0.6622494677745214  1.0000
  C   C66       1.0  0.6751876194733532  0.509190485040971  0.16224946844725527  1.0000
  C   C67       1.0  0.8248123805681726  0.009190485069713211  0.6622494677745214  1.0000
  C   C68       1.0  0.17518761925575  0.9908095148728024  0.16224946844725527  1.0000
  C   C69       1.0  0.256563512892345  0.5151928454909176  0.5851804868674186  1.0000
  C   C70       1.0  0.7434364869315777  0.48480715445159805  0.0851804875401525  1.0000
  C   C71       1.0  0.7565635131099481  0.9848071544228559  0.5851804868674186  1.0000
  C   C72       1.0  0.24343648671397455  0.01519284551965976  0.0851804875401525  1.0000
  C   C73       1.0  0.24620715565929066  0.5566194305656699  0.6929932992153613  1.0000
  C   C74       1.0  0.753792844164632  0.44338056937684583  0.19299329988809516  1.0000
  C   C75       1.0  0.7462071558768938  0.9433805693481037  0.6929932992153613  1.0000
  C   C76       1.0  0.25379284455831247  0.05661943059441199  0.19299329988809516  1.0000
  N   N1        1.0  0.11390268953382565  0.7485928168447455  0.21205805302867228  1.0000
  N   N2        1.0  0.8860973102900971  0.2514071830977701  0.7120580523559384  1.0000
  N   N3        1.0  0.6139026897514287  0.7514071833886213  0.21205805302867228  1.0000
  N   N4        1.0  0.38609731007249387  0.24859281687348772  0.7120580523559384  1.0000
  N   N5        1.0  0.07072712586417308  0.8113312447745821  0.47886447555339856  1.0000
  N   N6        1.0  0.9292728739597496  0.18866875516793363  0.9788644771710918  1.0000
  N   N7        1.0  0.5707271260817761  0.6886687551391915  0.47886447555339856  1.0000
  N   N8        1.0  0.4292728737421465  0.3113312448033242  0.9788644771710918  1.0000
  N   N9        1.0  0.1753109237044084  0.841729776756655  0.814597804311023  1.0000
  N   N10       1.0  0.8246890767307978  0.15827022318586076  0.31459780498375683  1.0000
  N   N11       1.0  0.675310923310728  0.6582702234767119  0.814597804311023  1.0000
  N   N12       1.0  0.32468907651319473  0.34172977678539707  0.31459780498375683  1.0000
  N   N13       1.0  0.27365480393043057  0.7934512056317604  0.7174614128606841  1.0000
  N   N14       1.0  0.7263451958934921  0.20654879431075518  0.21746141353341789  1.0000
  N   N15       1.0  0.7736548041480337  0.7065487946016064  0.7174614128606841  1.0000
  N   N16       1.0  0.22634519628717253  0.29345120566050265  0.21746141353341789  1.0000
  O   O1        1.0  0.8845157369897341  0.6355735268603487  0.30917363594807384  1.0000
  O   O2        1.0  0.1154842628341887  0.36442647308216686  0.80917363527534  1.0000
  O   O3        1.0  0.38451573677213086  0.8644264730534247  0.30917363594807384  1.0000
  O   O4        1.0  0.6154842630517917  0.135573526889091  0.80917363527534  1.0000
  O   O5        1.0  0.9832442276519636  0.7749891022363758  0.15866905893569394  1.0000
  O   O6        1.0  0.016755772171959133  0.22501089770613977  0.6586690582629602  1.0000
  O   O7        1.0  0.483244228045644  0.7250108976773976  0.15866905893569394  1.0000
  O   O8        1.0  0.5167557723895623  0.274989102265118  0.6586690582629602  1.0000
  O   O9        1.0  0.24392384780097956  0.7195949326096139  0.26871151968874923  1.0000
  O   O10       1.0  0.7560761520229431  0.2804050673329016  0.7687115213064426  1.0000
  O   O11       1.0  0.7439238480185827  0.7804050673041594  0.26871151968874923  1.0000
  O   O12       1.0  0.25607615180534005  0.2195949326383562  0.7687115213064426  1.0000
  F   F1        1.0  0.43236901510855447  0.5690413240661172  0.1350349608301365  1.0000
  F   F2        1.0  0.5676309847153682  0.43095867587639847  0.6350349601574027  1.0000
  F   F3        1.0  0.9323690153261576  0.9309586758476563  0.1350349608301365  1.0000
  F   F4        1.0  0.06763098449776511  0.06904132409485932  0.6350349601574027  1.0000
  F   F5        1.0  0.44997021931740894  0.48789617891429626  0.938267715859518  1.0000
  F   F6        1.0  0.5500297805065137  0.5121038210282194  0.4382677142418245  1.0000
  F   F7        1.0  0.949970219535012  0.012103821056961542  0.938267715859518  1.0000
  F   F8        1.0  0.05002978090019418  0.987896178885554  0.4382677142418245  1.0000
  F   F9        1.0  0.1968016052878698  0.4986210021196349  0.40325546790157846  1.0000
  F   F10       1.0  0.8031983951473364  0.5013789978228808  0.9032554695192718  1.0000
  F   F11       1.0  0.6968016048941893  0.0013789978516229207  0.40325546790157846  1.0000
  F   F12       1.0  0.30319839492973333  0.9986210020908928  0.9032554695192718  1.0000
  F   F13       1.0  0.17649176824409363  0.5776911836816034  0.6158056008866243  1.0000
  F   F14       1.0  0.823508231579829  0.4223088165805057  0.11580560155935814  1.0000
  F   F15       1.0  0.6764917684616968  0.9223088165517636  0.6158056008866243  1.0000
  F   F16       1.0  0.32350823136222595  0.07769118371034554  0.11580560155935814  1.0000
  I   I1        1.0  0.28736805530583515  0.6381341343362577  0.040722274430653696  1.0000
  I   I2        1.0  0.7126319445180875  0.3618658659258513  0.5407222760483471  1.0000
  I   I3        1.0  0.7873680555234382  0.8618658658971091  0.040722274430653696  1.0000
  I   I4        1.0  0.21263194491176793  0.1381341343649999  0.5407222760483471  1.0000
  I   I5        1.0  0.33585251752133743  0.4273571664769172  0.508877660723569  1.0000
  I   I6        1.0  0.6641474823025852  0.5726428334655984  0.008877661396302835  1.0000
  I   I7        1.0  0.8358525177389405  0.07264283349434063  0.508877660723569  1.0000
  I   I8        1.0  0.16414748208498212  0.927357166448175  0.008877661396302835  1.0000
