data_image0
_chemical_formula_structural       H10C16N6O2F4I2
_chemical_formula_sum              "H10 C16 N6 O2 F4 I2"
_cell_length_a       5.536161693713204
_cell_length_b       5.780697493060013
_cell_length_c       15.125641946489871
_cell_angle_alpha    85.34948760876578
_cell_angle_beta     89.92271264259942
_cell_angle_gamma    80.9202116253456

_space_group_name_H-M_alt    "P 1"
_space_group_IT_number       1

loop_
  _space_group_symop_operation_xyz
  'x, y, z'

loop_
  _atom_site_type_symbol
  _atom_site_label
  _atom_site_symmetry_multiplicity
  _atom_site_fract_x
  _atom_site_fract_y
  _atom_site_fract_z
  _atom_site_occupancy
  H   H1        1.0  0.441234798031495  0.713300157471327  0.9923597941746253  1.0000
  H   H2        1.0  0.558765202203828  0.28669984273555255  0.0076402058029819125  1.0000
  H   H3        1.0  0.1948593943354728  0.9058429541820756  0.03665927184479278  1.0000
  H   H4        1.0  0.8051406058998503  0.09415704602480404  0.9633407281328144  1.0000
  H   H5        1.0  0.5819156919010678  0.08800889952419015  0.16765316831710633  1.0000
  H   H6        1.0  0.4180843083424785  0.911991100543195  0.8323468323238409  1.0000
  H   H7        1.0  0.4150118785403184  0.7814984595133871  0.2653570630278455  1.0000
  H   H8        1.0  0.5849881216950048  0.21850154069349242  0.7346429369497617  1.0000
  H   H9        1.0  0.9695831984508362  0.2691271348721579  0.18532722327765747  1.0000
  H   H10       1.0  0.0304168017844868  0.7308728653347217  0.8146727766999498  1.0000
  C   C1        1.0  0.20115208333081497  0.5602476186528875  0.07479064759302716  1.0000
  C   C2        1.0  0.7988479169045081  0.4397523815539922  0.92520935238458  1.0000
  C   C3        1.0  0.9767168120319368  0.6248047209636197  0.12908367696160664  1.0000
  C   C4        1.0  0.02328318820338624  0.37519527924326007  0.8709163230160005  1.0000
  C   C5        1.0  0.6724832242810281  0.9056602401581982  0.17209649637073346  1.0000
  C   C6        1.0  0.32751677414821007  0.09433976004770459  0.8279035036023519  1.0000
  C   C7        1.0  0.5779168316211993  0.7344053156268905  0.22605616150584698  1.0000
  C   C8        1.0  0.42208316861412365  0.26559468457998914  0.7739438384717602  1.0000
  C   C9        1.0  0.8823511147259392  0.452355076385657  0.18274991552039616  1.0000
  C   C10       1.0  0.11764888550938404  0.5476449238212228  0.817250084457211  1.0000
  C   C11       1.0  0.15397111353799373  0.11600601397993922  0.4423620319923664  1.0000
  C   C12       1.0  0.8460288851819548  0.8839939844737574  0.5576379679824074  1.0000
  C   C13       1.0  0.12428559814537139  0.16756941078659418  0.5305489032501711  1.0000
  C   C14       1.0  0.8757144020899517  0.8324305894202856  0.469451096727436  1.0000
  C   C15       1.0  0.9741934737856063  0.05293660135166032  0.5869287962777674  1.0000
  C   C16       1.0  0.02580652644971688  0.9470633988552194  0.4130712036998398  1.0000
  N   N1        1.0  0.2873461677277924  0.7405082778701493  0.03187624723621372  1.0000
  N   N2        1.0  0.7126538325075307  0.25949172233673035  0.9681237527413934  1.0000
  N   N3        1.0  0.8725397350889293  0.8518709188752827  0.12391709652633455  1.0000
  N   N4        1.0  0.12746026514639383  0.14812908133159702  0.8760829034512726  1.0000
  N   N5        1.0  0.6821217465337319  0.5084229740333963  0.23163502459100696  1.0000
  N   N6        1.0  0.3178782537015912  0.49157702617348326  0.7683649753866002  1.0000
  O   O1        1.0  0.29453908175487953  0.3479720036762421  0.07260976164339297  1.0000
  O   O2        1.0  0.7054609184804435  0.6520279965306376  0.9273902383342142  1.0000
  F   F1        1.0  0.24528621518399302  0.32870858009379456  0.5632496024564324  1.0000
  F   F2        1.0  0.7547137850513301  0.6712914201130852  0.43675039752117467  1.0000
  F   F3        1.0  0.9578694082615518  0.10675425485082178  0.6727701075200261  1.0000
  F   F4        1.0  0.04213059197377125  0.8932457453560579  0.32722989245758094  1.0000
  I   I1        1.0  0.38988889613542116  0.27803861838403865  0.35688689326509393  1.0000
  I   I2        1.0  0.6101111041081252  0.7219613816833468  0.6431131073758533  1.0000
