data_image0
_chemical_formula_structural       H10C16N6O2F4Br2
_chemical_formula_sum              "H10 C16 N6 O2 F4 Br2"
_cell_length_a       5.142151256752287
_cell_length_b       5.6988283735563785
_cell_length_c       16.03197300944904
_cell_angle_alpha    98.72056654290861
_cell_angle_beta     91.04258477402884
_cell_angle_gamma    102.7375957220619

_space_group_name_H-M_alt    "P 1"
_space_group_IT_number       1

loop_
  _space_group_symop_operation_xyz
  'x, y, z'

loop_
  _atom_site_type_symbol
  _atom_site_label
  _atom_site_symmetry_multiplicity
  _atom_site_fract_x
  _atom_site_fract_y
  _atom_site_fract_z
  _atom_site_occupancy
  H   H1        1.0  0.438840884149813  0.2740091535356311  0.9993495280962865  1.0000
  H   H2        1.0  0.5611591169509013  0.7259908468282085  0.0006504720724357688  1.0000
  H   H3        1.0  0.1945035073994033  0.08344435589552182  0.05232492186142307  1.0000
  H   H4        1.0  0.8054964937013109  0.9165556444683178  0.9476750783072992  1.0000
  H   H5        1.0  0.5756194346248104  0.9242285962245743  0.1962685795579664  1.0000
  H   H6        1.0  0.42438056638772337  0.07577140385619516  0.80373141997883  1.0000
  H   H7        1.0  0.40204230159550863  0.2639151739068774  0.27656712156674174  1.0000
  H   H8        1.0  0.5979576995052056  0.7360848264569622  0.7234328786019806  1.0000
  H   H9        1.0  0.9490978873916203  0.766898753395996  0.1670450487337927  1.0000
  H   H10       1.0  0.05090211362091333  0.2331012466847732  0.8329549508030036  1.0000
  C   C1        1.0  0.1912898067938061  0.44360541144518767  0.07462597695931902  1.0000
  C   C2        1.0  0.8087101937784665  0.5563945868353276  0.9253740225747608  1.0000
  C   C3        1.0  0.96499143740728  0.38939659625040346  0.13181059914365664  1.0000
  C   C4        1.0  0.03500856369343413  0.6106034041134362  0.8681894010250656  1.0000
  C   C5        1.0  0.6628545395716617  0.11279528949318118  0.19016557149565014  1.0000
  C   C6        1.0  0.33714546152905245  0.8872047108706583  0.809834428673072  1.0000
  C   C7        1.0  0.5648646648944516  0.3025179277611403  0.2345544939867052  1.0000
  C   C8        1.0  0.43513533426076123  0.6974820726004379  0.7654455061765457  1.0000
  C   C9        1.0  0.8654750045073778  0.5793586131718684  0.17551626535435214  1.0000
  C   C10       1.0  0.13452499659333655  0.4206413871919712  0.8244837348143702  1.0000
  C   C11       1.0  0.1501250245844397  0.894002149879149  0.4379122094151395  1.0000
  C   C12       1.0  0.849874974570773  0.10599785048242923  0.5620877907481114  1.0000
  C   C13       1.0  0.012316242350944296  0.06808374186260326  0.42089457465124674  1.0000
  C   C14       1.0  0.9876837587497699  0.9319162585012363  0.5791054255174755  1.0000
  C   C15       1.0  0.8643369036424562  0.17262296709728678  0.4818069124634228  1.0000
  C   C16       1.0  0.13566309701799698  0.8273770314662989  0.5181930877025828  1.0000
  N   N1        1.0  0.282167655615504  0.25168222124020745  0.039391734271250055  1.0000
  N   N2        1.0  0.7178323453970298  0.7483177788405618  0.9606082652655463  1.0000
  N   N3        1.0  0.8653540525623874  0.15565892598963513  0.13957633117551996  1.0000
  N   N4        1.0  0.1346459485383268  0.8443410743742045  0.8604236689932022  1.0000
  N   N5        1.0  0.6655844669675814  0.5358767843006487  0.22781329944493015  1.0000
  N   N6        1.0  0.3344155341331327  0.46412321606319085  0.772186700723792  1.0000
  O   O1        1.0  0.2823290365907879  0.6595987194589948  0.06353875715135672  1.0000
  O   O2        1.0  0.7176709620359832  0.3404012788192591  0.9364612423772517  1.0000
  F   F1        1.0  0.017355526972385054  0.13647849933098455  0.3436711931427773  1.0000
  F   F2        1.0  0.9826444717425667  0.8635214992303397  0.656328807017757  1.0000
  F   F3        1.0  0.7319177382343282  0.33808440825263947  0.4615041628121784  1.0000
  F   F4        1.0  0.26808226048062345  0.6619155903086849  0.5384958373483559  1.0000
  Br  Br1       1.0  0.3544662399185382  0.7591494052155799  0.35503936670787406  1.0000
  Br  Br2       1.0  0.6455337610939954  0.2408505948651893  0.6449606328289222  1.0000
