data_image0
_chemical_formula_structural       H28C34N4O8
_chemical_formula_sum              "H28 C34 N4 O8"
_cell_length_a       3.6517420903857096
_cell_length_b       13.886654522029422
_cell_length_c       14.754185771638427
_cell_angle_alpha    67.19450691975537
_cell_angle_beta     91.29012816788962
_cell_angle_gamma    87.55920519422631

_space_group_name_H-M_alt    "P 1"
_space_group_IT_number       1

loop_
  _space_group_symop_operation_xyz
  'x, y, z'

loop_
  _atom_site_type_symbol
  _atom_site_label
  _atom_site_symmetry_multiplicity
  _atom_site_fract_x
  _atom_site_fract_y
  _atom_site_fract_z
  _atom_site_occupancy
  H   H1        1.0  0.22491723395009983  0.5530761138267876  0.9467228171292857  1.0000
  H   H2        1.0  0.7750827660756784  0.44692388586352544  0.053277183421779555  1.0000
  H   H3        1.0  0.16280231915890983  0.886945852067266  0.7866118520346448  1.0000
  H   H4        1.0  0.8371976808225198  0.11305414762196145  0.21338814783888574  1.0000
  H   H5        1.0  0.6023384048757157  0.6852430523035422  0.6510269668916925  1.0000
  H   H6        1.0  0.3976615951057139  0.31475694738568527  0.3489730329818382  1.0000
  H   H7        1.0  0.7527911126317194  0.5024452354766124  0.7668708306415473  1.0000
  H   H8        1.0  0.24720888719888787  0.49755476499501206  0.23312916894476596  1.0000
  H   H9        1.0  0.5379800379289456  0.4485836756575082  0.8713105165428641  1.0000
  H   H10       1.0  0.46201996205248397  0.5514163240317194  0.12868948333066668  1.0000
  H   H11       1.0  0.6414033350450038  0.9340619958937137  0.4875364133230233  1.0000
  H   H12       1.0  0.35859666771963555  0.06593800379603104  0.5124635872324864  1.0000
  H   H13       1.0  0.8494354530134892  0.8318676173332604  0.02185527760419957  1.0000
  H   H14       1.0  0.1505645468614667  0.16813238313944953  0.9781447226596481  1.0000
  H   H15       1.0  0.7154809997280345  0.6756557574091878  0.1720987601111903  1.0000
  H   H16       1.0  0.28451900029774363  0.32434424228112524  0.827901240439875  1.0000
  H   H17       1.0  0.6679406981393724  0.9992460382875004  0.06712924955466214  1.0000
  H   H18       1.0  0.332059301842057  0.0007539614017272301  0.9328707503188685  1.0000
  H   H19       1.0  0.3677905393736248  0.0013131253275767527  0.21569968654221108  1.0000
  H   H20       1.0  0.6322094604569823  0.9986868751440477  0.784300313044102  1.0000
  H   H21       1.0  0.12588107376833266  0.8972221206150987  0.3834479062741765  1.0000
  H   H22       1.0  0.8741189261066232  0.10277787985761146  0.6165520939896711  1.0000
  H   H23       1.0  0.03793649726929651  0.725198961883613  0.5166929438922357  1.0000
  H   H24       1.0  0.962063502712133  0.27480103780561455  0.483307055981295  1.0000
  H   H25       1.0  0.22892205949545943  0.5600988232370661  0.4967482311853622  1.0000
  H   H26       1.0  0.7710779405303189  0.439901176453247  0.5032517693657029  1.0000
  H   H27       1.0  0.507807035113056  0.5678613200337302  0.3411320749490685  1.0000
  H   H28       1.0  0.49219296491272224  0.4321386796565828  0.6588679256019967  1.0000
  C   C1        1.0  0.4284342059482349  0.6056483937327442  0.7994908091305  1.0000
  C   C2        1.0  0.5715657940331949  0.39435160595648333  0.2005091907430308  1.0000
  C   C3        1.0  0.27256025975806836  0.62039847958632  0.8796694012869521  1.0000
  C   C4        1.0  0.7274397400725389  0.3796015208853044  0.12033059829936099  1.0000
  C   C5        1.0  0.18071021667013445  0.7208052497160563  0.875603305556987  1.0000
  C   C6        1.0  0.8192897833112951  0.279194749973171  0.12439669431654374  1.0000
  C   C7        1.0  0.23512465211388064  0.8087120741910847  0.7904461780230518  1.0000
  C   C8        1.0  0.7648753478675488  0.19128792549814283  0.2095538218504788  1.0000
  C   C9        1.0  0.3869188493540901  0.7945304892794262  0.7099939302092445  1.0000
  C   C10       1.0  0.613081150671688  0.20546951041088687  0.29000607034182074  1.0000
  C   C11       1.0  0.4825322797706358  0.6943174596561206  0.71432675594073  1.0000
  C   C12       1.0  0.5174677201043202  0.30568254081658947  0.2856732443231177  1.0000
  C   C13       1.0  0.03095556989774716  0.7315905609776708  0.9648274436229922  1.0000
  C   C14       1.0  0.969044430128031  0.26840943871264217  0.035172556928073126  1.0000
  C   C15       1.0  0.44312726640113564  0.8866917171870669  0.61938660661647  1.0000
  C   C16       1.0  0.5568727336246425  0.1133082825032462  0.38061339393459515  1.0000
  C   C17       1.0  0.6345610031794873  0.7453616228878313  0.18562448638956927  1.0000
  C   C18       1.0  0.36543899680194225  0.25463837680139617  0.8143755134839614  1.0000
  C   C19       1.0  0.6023897235714653  0.9267285575803158  0.12655657112137225  1.0000
  C   C20       1.0  0.3976102764099643  0.07327144210891173  0.8734434287521584  1.0000
  C   C21       1.0  0.4402750333484159  0.9273674379613662  0.20948732324604977  1.0000
  C   C22       1.0  0.5597249664821914  0.07263256251025829  0.7905126763402635  1.0000
  C   C23       1.0  0.372455754238436  0.8314383241312993  0.2871081587571129  1.0000
  C   C24       1.0  0.6275442457429935  0.16856167555792834  0.7128918411164179  1.0000
  C   C25       1.0  0.211157227293466  0.8250005857034027  0.37546007326305725  1.0000
  C   C26       1.0  0.7888427726879638  0.17499941398582475  0.6245399266104735  1.0000
  C   C27       1.0  0.16333724039627429  0.728825213367103  0.44920444523489766  1.0000
  C   C28       1.0  0.8366627595851553  0.2711747863221244  0.5507955546386332  1.0000
  C   C29       1.0  0.2708519011234798  0.6353008228582935  0.43747532228373526  1.0000
  C   C30       1.0  0.7291480987514761  0.3646991776144165  0.5625246779801125  1.0000
  C   C31       1.0  0.42378394896617794  0.638996734303957  0.3516567198290211  1.0000
  C   C32       1.0  0.5762160509087778  0.361003266168753  0.6483432804348266  1.0000
  C   C33       1.0  0.47704137985427986  0.7369285309561544  0.27487871089025745  1.0000
  C   C34       1.0  0.5229586201271497  0.26307146873307313  0.7251212889832732  1.0000
  N   N1        1.0  0.5200267075586293  0.5062217100113402  0.8023945092242512  1.0000
  N   N2        1.0  0.4799732924671488  0.4937782896789729  0.197605491326814  1.0000
  N   N3        1.0  0.6939775886527968  0.8364356192980635  0.11417207582485368  1.0000
  N   N4        1.0  0.3060224113286328  0.16356438039116397  0.8858279240486769  1.0000
  O   O1        1.0  0.9862127976111404  0.6539048724430759  0.04125783619419478  1.0000
  O   O2        1.0  0.013787202263815494  0.3460951280296341  0.958742164069653  1.0000
  O   O3        1.0  0.9551632829203699  0.8292674931914312  0.9549848898769974  1.0000
  O   O4        1.0  0.04483671691023737  0.17073250728019307  0.045015109709315944  1.0000
  O   O5        1.0  0.3206513017081413  0.9764155640888972  0.6085454759558709  1.0000
  O   O6        1.0  0.6793486981224659  0.02358443638272724  0.3914545236304422  1.0000
  O   O7        1.0  0.6269051324154777  0.8672308863081696  0.5519663030266531  1.0000
  O   O8        1.0  0.37309486756595195  0.1327691133810579  0.44803369684687766  1.0000
