data_image0
_chemical_formula_structural       H100C82N6O6Cl12
_chemical_formula_sum              "H100 C82 N6 O6 Cl12"
_cell_length_a       12.887621281687371
_cell_length_b       12.97229702889904
_cell_length_c       14.540435315523979
_cell_angle_alpha    103.22862760570646
_cell_angle_beta     107.23413946994665
_cell_angle_gamma    109.06363753068078

_space_group_name_H-M_alt    "P 1"
_space_group_IT_number       1

loop_
  _space_group_symop_operation_xyz
  'x, y, z'

loop_
  _atom_site_type_symbol
  _atom_site_label
  _atom_site_symmetry_multiplicity
  _atom_site_fract_x
  _atom_site_fract_y
  _atom_site_fract_z
  _atom_site_occupancy
  H   H1        1.0  0.13823552771199416  0.2633503041984971  0.36131796743152034  1.0000
  H   H2        1.0  0.8617644720284934  0.736649696246775  0.6386820323955198  1.0000
  H   H3        1.0  0.14891193711283202  0.03429559493141402  0.10283623916257073  1.0000
  H   H4        1.0  0.8510880626276554  0.9657044055138579  0.8971637606644693  1.0000
  H   H5        1.0  0.4136651045531549  0.14088403785102216  0.4115501293704836  1.0000
  H   H6        1.0  0.586334894919436  0.8591159617775185  0.5884498704537805  1.0000
  H   H7        1.0  0.4360899685097059  0.978368512588016  0.3472234651641191  1.0000
  H   H8        1.0  0.5639100320082077  0.021631487859708573  0.6527765346649721  1.0000
  H   H9        1.0  0.5299299487403053  0.1052974826713778  0.3348848060290829  1.0000
  H   H10       1.0  0.47007005213635306  0.894702518088824  0.6651151945720382  1.0000
  H   H11       1.0  0.5019510281528988  0.9648744917199518  0.2566561313173013  1.0000
  H   H12       1.0  0.49804897209711835  0.0351255079110414  0.743343868509014  1.0000
  H   H13       1.0  0.32052398779867136  0.06023181348769949  0.07104992519555035  1.0000
  H   H14       1.0  0.6794760127192423  0.9397681869600253  0.9289500746335408  1.0000
  H   H15       1.0  0.4332509451749013  0.007567743914294058  0.09568719461501017  1.0000
  H   H16       1.0  0.5667490542976897  0.9924322557142468  0.9043128052092542  1.0000
  H   H17       1.0  0.46400040790422975  0.15084514091430234  0.17362754346823187  1.0000
  H   H18       1.0  0.5359995915683614  0.8491548587142383  0.8263724563560324  1.0000
  H   H19       1.0  0.22982669035735423  0.8422204576126008  0.20013242272326692  1.0000
  H   H20       1.0  0.7701733105193043  0.1577795431476009  0.7998675778778542  1.0000
  H   H21       1.0  0.3010563198290881  0.8299601038570832  0.11295477752134593  1.0000
  H   H22       1.0  0.6989436800022479  0.17003989608393458  0.887045223074948  1.0000
  H   H23       1.0  0.1821151482172559  0.8727277930372959  0.0852563703314679  1.0000
  H   H24       1.0  0.8178848512553352  0.12727220659124486  0.9147436294927963  1.0000
  H   H25       1.0  0.6148518223269989  0.1823221944134407  0.09129879964133884  1.0000
  H   H26       1.0  0.3851481771455923  0.8176778052151  0.9087012001829254  1.0000
  H   H27       1.0  0.8510981041322032  0.4836889599814809  0.06182183654303176  1.0000
  H   H28       1.0  0.14890189534038784  0.5163110396470598  0.9381781632812325  1.0000
  H   H29       1.0  0.47378937137565413  0.2157299041194228  0.02418982898966381  1.0000
  H   H30       1.0  0.5262106291422596  0.7842700963283019  0.9758101708394273  1.0000
  H   H31       1.0  0.42688765793474365  0.3132490985366757  0.9771976597328227  1.0000
  H   H32       1.0  0.5731123425831699  0.686750901911049  0.022802340096268598  1.0000
  H   H33       1.0  0.5453849249776226  0.1729132011705139  0.8850825569020827  1.0000
  H   H34       1.0  0.4546150748537132  0.8270867987705037  0.11491744369421113  1.0000
  H   H35       1.0  0.3912383339679203  0.1394832519237645  0.8344500970029033  1.0000
  H   H36       1.0  0.6087616658634155  0.8605167480172533  0.1655499035933906  1.0000
  H   H37       1.0  0.4310339098907884  0.3232872011351005  0.7997070172086008  1.0000
  H   H38       1.0  0.5689660906271251  0.6767127993126241  0.20029298262049036  1.0000
  H   H39       1.0  0.4983576959074773  0.24632069103698828  0.7416565285560908  1.0000
  H   H40       1.0  0.5016423035651137  0.7536793085915524  0.2583434712681733  1.0000
  H   H41       1.0  0.6346051183171741  0.4627031969911762  0.838212551081222  1.0000
  H   H42       1.0  0.365394882291588  0.5372968029522942  0.16178744951712318  1.0000
  H   H43       1.0  0.6974366975680438  0.37252141661093596  0.8840615446068143  1.0000
  H   H44       1.0  0.30256330304071805  0.6274785833325343  0.11593845599153085  1.0000
  H   H45       1.0  0.5664904200578668  0.4946615576130296  0.9795711862582247  1.0000
  H   H46       1.0  0.43350957941472423  0.505338442015511  0.02042881356603942  1.0000
  H   H47       1.0  0.7218709892353036  0.5396512005051052  0.029394323526418836  1.0000
  H   H48       1.0  0.27812901050518396  0.46034879994016686  0.9706056763006212  1.0000
  H   H49       1.0  0.690102070915702  0.07303469425825222  0.17410291349511312  1.0000
  H   H50       1.0  0.30989792882478545  0.9269653061870199  0.8258970863319269  1.0000
  H   H51       1.0  0.8472039696033172  0.11163020763377529  0.22892344136356144  1.0000
  H   H52       1.0  0.15279603013717033  0.8883697928114968  0.7710765584634787  1.0000
  H   H53       1.0  0.7620632884743445  0.022403469054826274  0.09848595982225539  1.0000
  H   H54       1.0  0.23793671204356917  0.9775965313928984  0.9015140400068359  1.0000
  H   H55       1.0  0.11069962884714037  0.4110505174916579  0.12478683279373694  1.0000
  H   H56       1.0  0.8893003714028769  0.5889494821393354  0.8752131670325785  1.0000
  H   H57       1.0  0.09943025085220829  0.5270721980719937  0.20751136517106236  1.0000
  H   H58       1.0  0.9005697488882791  0.47292780237327847  0.7924886346559777  1.0000
  H   H59       1.0  0.04896515018611252  0.49960704135985134  0.073405907540293  1.0000
  H   H60       1.0  0.9510348495543749  0.5003929590854206  0.9265940922867469  1.0000
  H   H61       1.0  0.5390701883833928  0.6733414497932374  0.8555332890933581  1.0000
  H   H62       1.0  0.4609298118666242  0.3266585498377558  0.1444667107329571  1.0000
  H   H63       1.0  0.19643407421466197  0.41552094146284957  0.804922794711707  1.0000
  H   H64       1.0  0.8035659252579291  0.5844790581656911  0.19507720511255713  1.0000
  H   H65       1.0  0.614010004094496  0.6634282359018169  0.7270553721255876  1.0000
  H   H66       1.0  0.3859899964234176  0.3365717645459079  0.2729446277035037  1.0000
  H   H67       1.0  0.5042695855492111  0.5994733830147612  0.5983771791824023  1.0000
  H   H68       1.0  0.4957304145500212  0.4005266177429881  0.4016228214166675  1.0000
  H   H69       1.0  0.5753095260249033  0.5178239972702722  0.6489695236693086  1.0000
  H   H70       1.0  0.4246904737155841  0.4821760031749999  0.35103047615773136  1.0000
  H   H71       1.0  0.10721797191280968  0.2656709189418839  0.531341242763466  1.0000
  H   H72       1.0  0.8927820286051038  0.7343290815058408  0.4686587570656253  1.0000
  H   H73       1.0  0.06742626068633777  0.2719832964078211  0.6391826462802906  1.0000
  H   H74       1.0  0.9325737395636794  0.7280167032231721  0.36081735354602473  1.0000
  H   H75       1.0  0.15853287264994134  0.20061395671588508  0.6181446094143513  1.0000
  H   H76       1.0  0.8414671271813945  0.7993860432251326  0.38185539118194245  1.0000
  H   H77       1.0  0.7122550286515488  0.9391420756821399  0.4759396907888704  1.0000
  H   H78       1.0  0.28774497159846846  0.060857923948853455  0.524060309037445  1.0000
  H   H79       1.0  0.04366885807678368  0.10356853252386629  0.9126160855821542  1.0000
  H   H80       1.0  0.9563311416637037  0.8964314679214058  0.0873839142448857  1.0000
  H   H81       1.0  0.05958621298254464  0.4938308172001174  0.6061437876170738  1.0000
  H   H82       1.0  0.9404137872674727  0.506169182430876  0.3938562122092417  1.0000
  H   H83       1.0  0.0405826306757889  0.4006083486652257  0.48550833124475723  1.0000
  H   H84       1.0  0.9594173687968022  0.5993916509633149  0.5144916685795069  1.0000
  H   H85       1.0  0.3750555698149671  0.7094419547926317  0.5409949283203406  1.0000
  H   H86       1.0  0.6249444307937949  0.29055804515083866  0.45900507227800463  1.0000
  H   H87       1.0  0.2822173731162926  0.5639708271769315  0.3105047777376769  1.0000
  H   H88       1.0  0.7177826274016211  0.43602917327079327  0.6894952220914145  1.0000
  H   H89       1.0  0.4257360148234916  0.6978214306192048  0.3888109400797501  1.0000
  H   H90       1.0  0.5742639854265258  0.3021785690117887  0.6111890597465653  1.0000
  H   H91       1.0  0.17404932930100753  0.6847931683781563  0.6698538536206127  1.0000
  H   H92       1.0  0.8259506701715835  0.31520683125038446  0.33014614620365157  1.0000
  H   H93       1.0  0.25380357422134747  0.7591838854374202  0.6069548664795126  1.0000
  H   H94       1.0  0.7461964260286699  0.24081611419357316  0.3930451333468029  1.0000
  H   H95       1.0  0.3133438571086965  0.681837350852686  0.6803295702872544  1.0000
  H   H96       1.0  0.6866561437679619  0.3181626499075156  0.31967043031386666  1.0000
  H   H97       1.0  0.0808833522695306  0.32209896481415684  0.24836018088575978  1.0000
  H   H98       1.0  0.9191166475618053  0.677901035126861  0.7516398197105342  1.0000
  H   H99       1.0  0.28745544088197095  0.4040984258011771  0.4843443605126138  1.0000
  H   H100      1.0  0.7125445593680463  0.5959015738298162  0.5156556393137016  1.0000
  C   C1        1.0  0.18260769744880434  0.21479431092696763  0.3302440906931126  1.0000
  C   C2        1.0  0.8173923034278541  0.7852056898332341  0.6697559099080085  1.0000
  C   C3        1.0  0.13431143953929672  0.15053199076358964  0.22447899589641754  1.0000
  C   C4        1.0  0.8656885599332944  0.8494680088649511  0.7755210039278467  1.0000
  C   C5        1.0  0.1882424017119624  0.08320991210139206  0.18582231842143485  1.0000
  C   C6        1.0  0.8117575988059511  0.9167900883463326  0.8141776814076563  1.0000
  C   C7        1.0  0.29130050764116955  0.07979571750914961  0.2515301759303935  1.0000
  C   C8        1.0  0.7086994926088478  0.9202042821218437  0.7484698238959219  1.0000
  C   C9        1.0  0.33622325809238746  0.14315797615758863  0.3571485148088034  1.0000
  C   C10       1.0  0.6637767413802037  0.8568420234709522  0.6428514850154609  1.0000
  C   C11       1.0  0.283385477384187  0.21103626659289024  0.39646306718239954  1.0000
  C   C12       1.0  0.7166145231337266  0.7889637338548344  0.6035369326466917  1.0000
  C   C13       1.0  0.024154876535398016  0.15251345099584762  0.15335023322837135  1.0000
  C   C14       1.0  0.9758451232959376  0.8474865489451701  0.8466497673679225  1.0000
  C   C15       1.0  0.3311281312441005  0.2726076980794452  0.5100868342116338  1.0000
  C   C16       1.0  0.6688718682284907  0.7273923015490955  0.4899131656126305  1.0000
  C   C17       1.0  0.35182253342665587  0.009623275317995936  0.20733145928350977  1.0000
  C   C18       1.0  0.6481774660459353  0.9903767243105447  0.7926685405407544  1.0000
  C   C19       1.0  0.46073271889944034  0.015160065064562633  0.29179149375692326  1.0000
  C   C20       1.0  0.5392672805731508  0.9848399345639781  0.708208506067341  1.0000
  C   C21       1.0  0.3948120290157958  0.060375886683354585  0.1323799447920489  1.0000
  C   C22       1.0  0.6051879704567952  0.9396241129451861  0.8676200550322153  1.0000
  C   C23       1.0  0.26046984623204644  0.8810870736966178  0.14808433966028037  1.0000
  C   C24       1.0  0.739530153508441  0.11891292674865424  0.8519156601667596  1.0000
  C   C25       1.0  0.9108401785748623  0.27533207595488507  0.1411494036093421  1.0000
  C   C26       1.0  0.08915982203389988  0.7246679239885854  0.8588505969890031  1.0000
  C   C27       1.0  0.7956091677057612  0.20356528008152622  0.13036877042334044  1.0000
  C   C28       1.0  0.2043908331708972  0.7964347206786755  0.8696312301777804  1.0000
  C   C29       1.0  0.7024497152662008  0.23665687267120236  0.09587437242407586  1.0000
  C   C30       1.0  0.2975502844742866  0.7633431277740697  0.9041256274029641  1.0000
  C   C31       1.0  0.7194331283782578  0.33772030948800885  0.07193838245639046  1.0000
  C   C32       1.0  0.28056687213965587  0.6622796909597157  0.9280616173727009  1.0000
  C   C33       1.0  0.8341546285995106  0.4049189768376991  0.0807833303349399  1.0000
  C   C34       1.0  0.16584537087308038  0.5950810227908416  0.9192166694893242  1.0000
  C   C35       1.0  0.930809065692065  0.3767586744618496  0.11603899372088942  1.0000
  C   C36       1.0  0.06919093518459335  0.6232413262983522  0.8839610068802316  1.0000
  C   C37       1.0  0.6193366875303309  0.3800009100893298  0.04879549455675606  1.0000
  C   C38       1.0  0.38066331298758277  0.619999090358395  0.9512045052723352  1.0000
  C   C39       1.0  0.49416944848914424  0.277345131936605  0.9845005482995738  1.0000
  C   C40       1.0  0.505830551610088  0.7226548688211442  0.015499452299496072  1.0000
  C   C41       1.0  0.4810522409593518  0.21249754290126455  0.8771347254491059  1.0000
  C   C42       1.0  0.5189477587811356  0.7875024575440075  0.12286527437793415  1.0000
  C   C43       1.0  0.5032127712511243  0.29368932326165714  0.8168408191256656  1.0000
  C   C44       1.0  0.49678722822146676  0.7063106763668836  0.1831591806985985  1.0000
  C   C45       1.0  0.6241501881273345  0.4001871944651017  0.8785396869764238  1.0000
  C   C46       1.0  0.3758498113452566  0.599812805163439  0.1214603128478404  1.0000
  C   C47       1.0  0.6361680693432823  0.4619885063826686  0.9867335063886634  1.0000
  C   C48       1.0  0.3638319311746313  0.5380114940650561  0.013266493440427834  1.0000
  C   C49       1.0  0.7720319069513357  0.09728416573103557  0.15957218972538686  1.0000
  C   C50       1.0  0.22796809365742624  0.9027158342124347  0.8404278108729583  1.0000
  C   C51       1.0  0.05384768381669287  0.45719247967711846  0.13078492835949124  1.0000
  C   C52       1.0  0.9461523156558981  0.5428075199514222  0.8692150714647731  1.0000
  C   C53       1.0  0.33927847251090776  0.43375304532878917  0.6438160610033331  1.0000
  C   C54       1.0  0.6607215280070059  0.5662469551189355  0.3561839388257582  1.0000
  C   C55       1.0  0.44394509114338226  0.5361130927724986  0.7071008163659798  1.0000
  C   C56       1.0  0.5560549086879535  0.46388690716851905  0.2928991842303142  1.0000
  C   C57       1.0  0.45756028668892157  0.5939515049904082  0.8069160803154862  1.0000
  C   C58       1.0  0.5424397130515659  0.40604849545486393  0.1930839195115538  1.0000
  C   C59       1.0  0.370093428076228  0.5527779217176837  0.8443581807614998  1.0000
  C   C60       1.0  0.6299065721737892  0.44722207791330953  0.15564181906481553  1.0000
  C   C61       1.0  0.2673335520699344  0.4495990481626091  0.7790258914543138  1.0000
  C   C62       1.0  0.7326664485388276  0.5504009517808612  0.22097410914403132  1.0000
  C   C63       1.0  0.2501953690311097  0.38840611075283565  0.6792690410225282  1.0000
  C   C64       1.0  0.7498046307093776  0.6115938896924364  0.3207309588045119  1.0000
  C   C65       1.0  0.539419987342617  0.5819218256693799  0.6689276720701167  1.0000
  C   C66       1.0  0.4605800124887189  0.4180781742716379  0.33107232852617735  1.0000
  C   C67       1.0  0.14000312283809643  0.2766471189642583  0.6133577715272557  1.0000
  C   C68       1.0  0.859996876902391  0.7233528814810138  0.38664222829978434  1.0000
  C   C69       1.0  0.7871000665754787  0.02513371602080595  0.5013765220995928  1.0000
  C   C70       1.0  0.21289993394243492  0.9748662844269188  0.49862347772949844  1.0000
  C   C71       1.0  0.1057085841047932  0.1854448729268049  0.9134453155629711  1.0000
  C   C72       1.0  0.8942914159944391  0.8145551278309442  0.08655468503609856  1.0000
  C   C73       1.0  0.05325783590438271  0.4882719863560782  0.5280876837078343  1.0000
  C   C74       1.0  0.9467421635682084  0.5117280132724625  0.4719123161164299  1.0000
  C   C75       1.0  0.20257541160620327  0.5496413749014051  0.4587333390449377  1.0000
  C   C76       1.0  0.7974245881342841  0.4503586255438669  0.5412666607821024  1.0000
  C   C77       1.0  0.3155415775486295  0.6388558177316397  0.46702220917588516  1.0000
  C   C78       1.0  0.6844584219239616  0.361144181896901  0.532977790648379  1.0000
  C   C79       1.0  0.3431613389131451  0.6338340066194443  0.38473792643202354  1.0000
  C   C80       1.0  0.6568386605594458  0.3661659930090963  0.6152620733922406  1.0000
  C   C81       1.0  0.23141719940750843  0.6812325332397663  0.6278938633970496  1.0000
  C   C82       1.0  0.7685828003329791  0.31876746720550586  0.3721061364299904  1.0000
  N   N1        1.0  0.011338668792004227  0.2532510190146336  0.18620887904420858  1.0000
  N   N2        1.0  0.9886613306805869  0.7467489806139072  0.8137911207800557  1.0000
  N   N3        1.0  0.32130559329311525  0.37488894314918375  0.5404851482968881  1.0000
  N   N4        1.0  0.6786944072247985  0.6251110572985409  0.4595148515322032  1.0000
  N   N5        1.0  0.1658168004760714  0.5734839347946085  0.5364323307065795  1.0000
  N   N6        1.0  0.834183199264416  0.4265160656506636  0.4635676691204605  1.0000
  O   O1        1.0  0.9512737009303602  0.06859057400797218  0.07215375037545915  1.0000
  O   O2        1.0  0.048726299319656975  0.9314094256230211  0.9278462494508563  1.0000
  O   O3        1.0  0.37598130979812805  0.23153296507559948  0.5725570036583703  1.0000
  O   O4        1.0  0.6240186907197856  0.7684670353721252  0.427442996170721  1.0000
  O   O5        1.0  0.14344664905200014  0.4544469883170456  0.3830171673130613  1.0000
  O   O6        1.0  0.8565533514659134  0.545553012130679  0.6169828325160299  1.0000
  Cl  Cl1       1.0  0.8125060989714149  0.040892414723367534  0.3904174986060829  1.0000
  Cl  Cl2       1.0  0.18749390127860252  0.9591075849076259  0.6095825012202327  1.0000
  Cl  Cl3       1.0  0.9141537894516815  0.028479766102479473  0.5936069410895936  1.0000
  Cl  Cl4       1.0  0.08584621106623196  0.9715202343452451  0.40639305873949777  1.0000
  Cl  Cl5       1.0  0.7464643642384579  0.13566751051318143  0.5553414115234854  1.0000
  Cl  Cl6       1.0  0.25353563550202945  0.8643324899320906  0.44465858830355454  1.0000
  Cl  Cl7       1.0  0.16887154181783975  0.1500908576041014  0.8248369472435261  1.0000
  Cl  Cl8       1.0  0.8311284580134961  0.8499091423369164  0.17516305335276783  1.0000
  Cl  Cl9       1.0  0.027786526639833053  0.26972145785848906  0.8780029905620129  1.0000
  Cl  Cl10      1.0  0.9722134736101843  0.7302785417725043  0.12199700926430243  1.0000
  Cl  Cl11      1.0  0.21815627061311008  0.2614033955776686  0.04097393007515427  1.0000
  Cl  Cl12      1.0  0.7818437299956519  0.7385966043658018  0.9590260705231909  1.0000
