data_image0
_chemical_formula_structural       H96C116N8O16Cl4
_chemical_formula_sum              "H96 C116 N8 O16 Cl4"
_cell_length_a       8.974592859789738
_cell_length_b       13.82084656140086
_cell_length_c       18.619894681156442
_cell_angle_alpha    90.0
_cell_angle_beta     91.44274215133007
_cell_angle_gamma    90.0

_space_group_name_H-M_alt    "P 1"
_space_group_IT_number       1

loop_
  _space_group_symop_operation_xyz
  'x, y, z'

loop_
  _atom_site_type_symbol
  _atom_site_label
  _atom_site_symmetry_multiplicity
  _atom_site_fract_x
  _atom_site_fract_y
  _atom_site_fract_z
  _atom_site_occupancy
  H   H1        1.0  0.969742554235015  0.4936648033598055  0.7037532697944663  1.0000
  H   H2        1.0  0.03025744528089464  0.9936648033091263  0.7962467302848779  1.0000
  H   H3        1.0  0.03025744565022066  0.506335196538836  0.29624673009715574  1.0000
  H   H4        1.0  0.9697425546043408  0.006335196589515229  0.20375326960674403  1.0000
  H   H5        1.0  0.3523718288253879  0.9715059739899938  0.5055395997913625  1.0000
  H   H6        1.0  0.6476281706905216  0.4715059740406731  0.9944604002879817  1.0000
  H   H7        1.0  0.6476281710598475  0.02849402590864766  0.4944604001002595  1.0000
  H   H8        1.0  0.35237182923017635  0.5284940258579685  0.005539600140858768  1.0000
  H   H9        1.0  0.35583536726845105  0.8705405813274939  0.6135651505110027  1.0000
  H   H10       1.0  0.6441646333615041  0.37054058137817314  0.886434849564774  1.0000
  H   H11       1.0  0.6441646326167844  0.1294594185711476  0.38643484938061934  1.0000
  H   H12       1.0  0.35583536655919373  0.6294594185204684  0.11356515086406643  1.0000
  H   H13       1.0  0.3981028211321256  0.22655394704581902  0.6369413947096224  1.0000
  H   H14       1.0  0.6018971783837839  0.7265539469951398  0.8630586053697217  1.0000
  H   H15       1.0  0.60189717875311  0.7734460535763672  0.36305860518199956  1.0000
  H   H16       1.0  0.39810282153691395  0.27344605290350177  0.13694139505911865  1.0000
  H   H17       1.0  0.6058095486449009  0.04696146123296615  0.7768889364926528  1.0000
  H   H18       1.0  0.39419045087100857  0.546961461182287  0.7231110635866914  1.0000
  H   H19       1.0  0.3941904512403345  0.9530385386656754  0.22311106339896922  1.0000
  H   H20       1.0  0.6058095490142269  0.45303853871635463  0.27688893630493056  1.0000
  H   H21       1.0  0.3662983716525492  0.7790184271395821  0.7171732723563988  1.0000
  H   H22       1.0  0.633701628977406  0.2790184271902614  0.7828267277193778  1.0000
  H   H23       1.0  0.633701629346732  0.22098157275905939  0.2828267275316556  1.0000
  H   H24       1.0  0.36629837090782946  0.7209815727083801  0.2171732721722441  1.0000
  H   H25       1.0  0.19637564383211606  0.844625906824104  0.7043472946566827  1.0000
  H   H26       1.0  0.8036243567978392  0.34462590687478317  0.795652705419094  1.0000
  H   H27       1.0  0.8036243560531193  0.15537409379808226  0.2956527052349394  1.0000
  H   H28       1.0  0.19637564312285874  0.6553740937474031  0.20434729500974638  1.0000
  H   H29       1.0  0.25916940344637457  0.811011790066779  0.7928262885283731  1.0000
  H   H30       1.0  0.7408305960695349  0.31101179011745833  0.707173711550971  1.0000
  H   H31       1.0  0.7408305964743234  0.18898820983186243  0.20717371190046718  1.0000
  H   H32       1.0  0.2591694038157006  0.6889882097811832  0.292826288340651  1.0000
  H   H33       1.0  0.3881581482705218  0.298497464078774  0.8491931899210846  1.0000
  H   H34       1.0  0.6118418512453877  0.7984974640280947  0.6508068101582596  1.0000
  H   H35       1.0  0.611841851650176  0.7015025358198675  0.1508068105077558  1.0000
  H   H36       1.0  0.3881581486398478  0.20150253587054678  0.3491931897333624  1.0000
  H   H37       1.0  0.2454419971547958  0.45201448856594434  0.8417385031517466  1.0000
  H   H38       1.0  0.7545580023611137  0.952014488515265  0.6582614969275976  1.0000
  H   H39       1.0  0.7545580027304397  0.5479855113326972  0.15826149673987536  1.0000
  H   H40       1.0  0.24544199752412182  0.04798551138337643  0.3417385029640244  1.0000
  H   H41       1.0  0.983403093096237  0.3358513430692135  0.6641438815572667  1.0000
  H   H42       1.0  0.016596907498256003  0.8358513430185344  0.8358561179812916  1.0000
  H   H43       1.0  0.016596906788998663  0.664148656829428  0.3358561183343553  1.0000
  H   H44       1.0  0.9834030923869794  0.16414865688010727  0.16414388191033044  1.0000
  H   H45       1.0  0.11991123977987991  0.18211342111484122  0.674766649266753  1.0000
  H   H46       1.0  0.8800887597360296  0.6821134210641621  0.8252333508125911  1.0000
  H   H47       1.0  0.8800887601408179  0.8178865787838003  0.3252333511620873  1.0000
  H   H48       1.0  0.11991124014920594  0.31788657883447957  0.1747666490790309  1.0000
  H   H49       1.0  0.548156536344002  0.01224789011642442  0.9366590490976539  1.0000
  H   H50       1.0  0.45184346428595323  0.5122478900657452  0.5633409509781229  1.0000
  H   H51       1.0  0.45184346354123345  0.9877521097822172  0.06334095079396823  1.0000
  H   H52       1.0  0.5481565367133281  0.48775210983289635  0.4366590489099315  1.0000
  H   H53       1.0  0.6991452657374573  0.9696233338865528  0.8878647565426424  1.0000
  H   H54       1.0  0.3008547337784523  0.469623333937232  0.6121352435367018  1.0000
  H   H55       1.0  0.3008547341477783  0.03037666601208881  0.11213524334897951  1.0000
  H   H56       1.0  0.6991452661067832  0.5303766659614096  0.3878647563549203  1.0000
  H   H57       1.0  0.8469338846365967  0.11971736844405663  0.8188188643676039  1.0000
  H   H58       1.0  0.1530661159933585  0.6197173683933774  0.6811811357081726  1.0000
  H   H59       1.0  0.1530661152841012  0.8802826314545849  0.18118113606123645  1.0000
  H   H60       1.0  0.8469338850059227  0.38028263150526415  0.3188188641798817  1.0000
  H   H61       1.0  0.006610446747392781  0.2555279066524881  0.858561257967036  1.0000
  H   H62       1.0  0.9933895527685167  0.7555279066018089  0.6414387421123081  1.0000
  H   H63       1.0  0.9933895531733051  0.7444720932461534  0.1414387424618044  1.0000
  H   H64       1.0  0.006610447116718798  0.24447209329683264  0.35856125777931375  1.0000
  H   H65       1.0  0.0776061550244541  0.3779008598928121  0.9517490648661947  1.0000
  H   H66       1.0  0.9223938444914552  0.8779008598421328  0.5482509352131496  1.0000
  H   H67       1.0  0.9223938448607814  0.6220991400058294  0.048250935025427294  1.0000
  H   H68       1.0  0.07760615539378012  0.12209914005650868  0.4517490646784725  1.0000
  H   H69       1.0  0.038830940382725304  0.45111791685849145  0.07153184861491628  1.0000
  H   H70       1.0  0.9611690599072986  0.9511179175313569  0.42846815162620194  1.0000
  H   H71       1.0  0.9611690595379726  0.5488820830401502  0.9284681518139242  1.0000
  H   H72       1.0  0.0388309399779369  0.04888208309082936  0.57153184826542  1.0000
  H   H73       1.0  0.8340040527110111  0.39208195720326033  0.14820211114019427  1.0000
  H   H74       1.0  0.16599594754355046  0.8920819571525812  0.35179788856370553  1.0000
  H   H75       1.0  0.16599594717422445  0.6079180434189259  0.8517978887514277  1.0000
  H   H76       1.0  0.8340040523416851  0.10791804346960508  0.6482021113279164  1.0000
  H   H77       1.0  0.66381331795005  0.2612898727987882  0.10332647625945422  1.0000
  H   H78       1.0  0.33618668119046574  0.761289872748109  0.3966735234480131  1.0000
  H   H79       1.0  0.33618668193518547  0.7387101270998534  0.8966735236321677  1.0000
  H   H80       1.0  0.6638133186947698  0.23871012715053255  0.6033264764436088  1.0000
  H   H81       1.0  0.5967121422718802  0.14069405599441856  0.013014050319934458  1.0000
  H   H82       1.0  0.4032878580181438  0.6406940559437394  0.4869859499211838  1.0000
  H   H83       1.0  0.40328785761335534  0.859305943904223  0.9869859495716874  1.0000
  H   H84       1.0  0.5967121418670918  0.35930594395490223  0.5130140499704382  1.0000
  H   H85       1.0  0.13036471879439218  0.45924610853625314  0.5462970596013967  1.0000
  H   H86       1.0  0.8696352807215173  0.9592461084855739  0.9537029404779476  1.0000
  H   H87       1.0  0.8696352810908433  0.5407538913623885  0.4537029402902252  1.0000
  H   H88       1.0  0.13036471916371822  0.04075389141306764  0.046297059413674554  1.0000
  H   H89       1.0  0.9950656396875587  0.38847855058277964  0.5029627282181387  1.0000
  H   H90       1.0  0.004934359828350832  0.8884785505321005  0.9970372718612053  1.0000
  H   H91       1.0  0.00493436023313924  0.6115214500394066  0.4970372722107016  1.0000
  H   H92       1.0  0.9950656400568847  0.11152145009008581  0.0029627280304165794  1.0000
  H   H93       1.0  0.3222583847221121  0.3876472107694799  0.3930940858362771  1.0000
  H   H94       1.0  0.6777416155324494  0.8876472114423453  0.10690591386762269  1.0000
  H   H95       1.0  0.6777416162771692  0.6123527891291617  0.6069059140517774  1.0000
  H   H96       1.0  0.32225838435278603  0.11235278917984091  0.8930940860239992  1.0000
  C   C1        1.0  0.3791822005539457  0.10554062108422341  0.5649857414505942  1.0000
  C   C2        1.0  0.6208178000760095  0.6055406210335441  0.9350142586251826  1.0000
  C   C3        1.0  0.6208177993667522  0.8944593795379628  0.4350142589782463  1.0000
  C   C4        1.0  0.37918219980922596  0.39445937886509735  0.06498574126643947  1.0000
  C   C5        1.0  0.3640268491695675  0.005269532490390236  0.5582673693451726  1.0000
  C   C6        1.0  0.6359731514603877  0.505269532439711  0.9417326307306039  1.0000
  C   C7        1.0  0.6359731518297136  0.9947304674082513  0.44173263054288175  1.0000
  C   C8        1.0  0.3640268484603102  0.4947304674589305  0.058267369698236496  1.0000
  C   C9        1.0  0.36510326337848464  0.9485158866181105  0.619770906116552  1.0000
  C   C10       1.0  0.6348967372160083  0.4485158866687897  0.8802290934220063  1.0000
  C   C11       1.0  0.6348967376207967  0.05148411400407574  0.3802290937715025  1.0000
  C   C12       1.0  0.36510326266922727  0.5514841139533965  0.11977090646961569  1.0000
  C   C13       1.0  0.37613315136505127  0.9897242704511681  0.6888453764687179  1.0000
  C   C14       1.0  0.6238668481508581  0.48972427050184725  0.8111546236106263  1.0000
  C   C15       1.0  0.6238668485201841  0.010275729447473523  0.311154623422904  1.0000
  C   C16       1.0  0.37613315176983975  0.5102757293967943  0.18884537681821417  1.0000
  C   C17       1.0  0.3824087276711278  0.09205101108300341  0.6950448191980378  1.0000
  C   C18       1.0  0.617591272923365  0.5920510110323243  0.8049551803405204  1.0000
  C   C19       1.0  0.6175912722141077  0.9079489888156381  0.3049551806935842  1.0000
  C   C20       1.0  0.38240872696187045  0.40794898886631736  0.19504481955110156  1.0000
  C   C21       1.0  0.38873424352116037  0.1482797526834189  0.6322716273427824  1.0000
  C   C22       1.0  0.6112657559947491  0.6482797526327396  0.8677283727365619  1.0000
  C   C23       1.0  0.6112657563640751  0.8517202472152227  0.36772837254883955  1.0000
  C   C24       1.0  0.3887342438904864  0.3517202472659019  0.13227162715506016  1.0000
  C   C25       1.0  0.4541185326326164  0.9381316023152354  0.8112568507369445  1.0000
  C   C26       1.0  0.5458814679973388  0.43813160236591464  0.6887431493388321  1.0000
  C   C27       1.0  0.545881467252619  0.06186839758340614  0.1887431491546775  1.0000
  C   C28       1.0  0.45411853192335916  0.561868397532727  0.3112568510900083  1.0000
  C   C29       1.0  0.5316952675993802  0.03570917583140988  0.8227472762877385  1.0000
  C   C30       1.0  0.46830473191652927  0.5357091757807307  0.6772527237916057  1.0000
  C   C31       1.0  0.4683047322858553  0.9642908240672318  0.17725272360388347  1.0000
  C   C32       1.0  0.5316952680041687  0.4642908241179109  0.32274727663723474  1.0000
  C   C33       1.0  0.3606088030804546  0.14190989251538322  0.7638983698418701  1.0000
  C   C34       1.0  0.6393911963999924  0.6419098924647041  0.7361016297002556  1.0000
  C   C35       1.0  0.6393911968047808  0.8580901073832583  0.23610163004975185  1.0000
  C   C36       1.0  0.36060880348524305  0.35809010743393754  0.2638983701913663  1.0000
  C   C37       1.0  0.2938059557190712  0.8347620906393027  0.7398341523649041  1.0000
  C   C38       1.0  0.706194043761376  0.334762090689982  0.7601658471772216  1.0000
  C   C39       1.0  0.7061940441661644  0.1652379092593388  0.26016584752671784  1.0000
  C   C40       1.0  0.29380595612385957  0.6652379092086596  0.23983415271440037  1.0000
  C   C41       1.0  0.26612231797186414  0.2290767852703153  0.7624734995603085  1.0000
  C   C42       1.0  0.7338776815440453  0.729076785219636  0.7375265005190356  1.0000
  C   C43       1.0  0.7338776819488338  0.7709232146283262  0.2375265008685319  1.0000
  C   C44       1.0  0.26612231834119016  0.2709232146790055  0.26247349937258635  1.0000
  C   C45       1.0  0.2973803481234935  0.3061905912347434  0.8097697798775282  1.0000
  C   C46       1.0  0.7026196513924159  0.8061905919076089  0.690230220201816  1.0000
  C   C47       1.0  0.702619651761742  0.6938094086638981  0.1902302200140938  1.0000
  C   C48       1.0  0.29738034852828193  0.19380940871457736  0.3097697802270244  1.0000
  C   C49       1.0  0.21843019945959494  0.3924493674033115  0.8053040578472979  1.0000
  C   C50       1.0  0.7815698000563146  0.8924493673526323  0.6946959422320463  1.0000
  C   C51       1.0  0.7815698004611029  0.60755063249533  0.19469594258154257  1.0000
  C   C52       1.0  0.21843019982892095  0.1075506325460093  0.30530405765957563  1.0000
  C   C53       1.0  0.10546569114573165  0.40438364069599475  0.7522355956270643  1.0000
  C   C54       1.0  0.8945343094842235  0.9043836406453155  0.7477644044487123  1.0000
  C   C55       1.0  0.8945343098535495  0.5956163592026468  0.24776440426099006  1.0000
  C   C56       1.0  0.10546569040101193  0.09561635925332601  0.25223559544290974  1.0000
  C   C57       1.0  0.07106093099740246  0.3273191775845511  0.7052783410008874  1.0000
  C   C58       1.0  0.9289390684830446  0.8273191775338719  0.7947216585412382  1.0000
  C   C59       1.0  0.9289390688878328  0.6726808223140904  0.29472165889073454  1.0000
  C   C60       1.0  0.07106093140219086  0.17268082236476973  0.20527834135038364  1.0000
  C   C61       1.0  0.149795210074261  0.24117672062934364  0.7110131694791894  1.0000
  C   C62       1.0  0.8502047905556942  0.7411767205786645  0.7889868305965873  1.0000
  C   C63       1.0  0.8502047898109745  0.7588232792692978  0.2889868304124326  1.0000
  C   C64       1.0  0.14979521047904942  0.2588232793199771  0.21101316982868557  1.0000
  C   C65       1.0  0.6227926160080475  0.0313191791889864  0.8930559842155511  1.0000
  C   C66       1.0  0.377207383507862  0.5313191791383072  0.606944015863793  1.0000
  C   C67       1.0  0.3772073839126504  0.9686808214331998  0.10694401621328928  1.0000
  C   C68       1.0  0.6227926163773735  0.4686808214838791  0.3930559840278289  1.0000
  C   C69       1.0  0.7093006665721431  0.12085037646425513  0.9133756425811982  1.0000
  C   C70       1.0  0.2906993329083041  0.6208503764135759  0.5866243569609275  1.0000
  C   C71       1.0  0.2906993333130924  0.8791496234343864  0.08662435731042371  1.0000
  C   C72       1.0  0.7093006669769315  0.37914962348506565  0.4133756429306945  1.0000
  C   C73       1.0  0.8257986024507915  0.1554999435419654  0.8698179888665863  1.0000
  C   C74       1.0  0.174201397065118  0.6554999434912863  0.630182011212758  1.0000
  C   C75       1.0  0.17420139743444402  0.8445000563566762  0.13018201102503577  1.0000
  C   C76       1.0  0.8257986028555799  0.34450005640735537  0.36981798921608244  1.0000
  C   C77       1.0  0.9155257099723118  0.23135142523975097  0.891907737172726  1.0000
  C   C78       1.0  0.08447429065764352  0.7313514251890717  0.6080922629030506  1.0000
  C   C79       1.0  0.08447428991292379  0.7686485746588905  0.10809226271889606  1.0000
  C   C80       1.0  0.915525709227592  0.2686485747095698  0.3919077369885713  1.0000
  C   C81       1.0  0.8940116480023815  0.27750825124645984  0.9590569676333338  1.0000
  C   C82       1.0  0.10598835262757368  0.7775082519193253  0.5409430324424427  1.0000
  C   C83       1.0  0.10598835188285395  0.7224917486521818  0.04094303225828808  1.0000
  C   C84       1.0  0.8940116472931242  0.22249174870286095  0.4590569679863977  1.0000
  C   C85       1.0  0.9872017256733162  0.3532735450255309  0.9852138363915999  1.0000
  C   C86       1.0  0.012798273842593345  0.8532735449748516  0.5147861636877443  1.0000
  C   C87       1.0  0.012798274247381747  0.6467264548731106  0.01478616403724053  1.0000
  C   C88       1.0  0.987201726042642  0.1467264549237899  0.4852138362038776  1.0000
  C   C89       1.0  0.9656219608963827  0.39350036452823195  0.051980882420770015  1.0000
  C   C90       1.0  0.034378039358179006  0.8935003644775528  0.4480191172831298  1.0000
  C   C91       1.0  0.03437804010289873  0.6064996353704095  0.9480191174672844  1.0000
  C   C92       1.0  0.9656219605270565  0.10649963542108877  0.5519808826084922  1.0000
  C   C93       1.0  0.8482158047864412  0.3605472123478176  0.09511108356693941  1.0000
  C   C94       1.0  0.1517841954681202  0.8605472122971383  0.4048889161369604  1.0000
  C   C95       1.0  0.15178419509879418  0.639452787550824  0.9048889163246826  1.0000
  C   C96       1.0  0.8482158044171153  0.1394527876015032  0.5951110837546616  1.0000
  C   C97       1.0  0.7541028615228995  0.2880076529549824  0.07072631532339535  1.0000
  C   C98       1.0  0.24589713873166197  0.7880076529043031  0.4292736843805044  1.0000
  C   C99       1.0  0.245897138362336  0.7119923476672039  0.9292736845682266  1.0000
  C   C100      1.0  0.7541028611535736  0.2119923477178831  0.5707263155111176  1.0000
  C   C101      1.0  0.775103221231466  0.2441276664935358  0.0027904891418952522  1.0000
  C   C102      1.0  0.2248967790585579  0.7441276664428566  0.4972095110992229  1.0000
  C   C103      1.0  0.2248967786537695  0.7558723334051057  0.9972095107497267  1.0000
  C   C104      1.0  0.7751032208266775  0.255872333455785  0.502790488792399  1.0000
  C   C105      1.0  0.6846254415411854  0.16606579704097119  0.9782277200424424  1.0000
  C   C106      1.0  0.31537455793926167  0.6660657969902919  0.5217722794996834  1.0000
  C   C107      1.0  0.3153745583440501  0.8339342028576704  0.021772279849179597  1.0000
  C   C108      1.0  0.6846254419459737  0.3339342029083496  0.47822772039193856  1.0000
  C   C109      1.0  0.14614801229200178  0.45358843122592235  0.43284231390594047  1.0000
  C   C110      1.0  0.8538519879625597  0.9535884311752432  0.06715768579795925  1.0000
  C   C111      1.0  0.8538519875932338  0.5464115686727191  0.5671576859856815  1.0000
  C   C112      1.0  0.1461480119226758  0.04641156872339836  0.9328423140936628  1.0000
  C   C113      1.0  0.05420915958556199  0.45801230495379935  0.4994656448069713  1.0000
  C   C114      1.0  0.9457908406689995  0.9580123056266648  0.0005343548969283778  1.0000
  C   C115      1.0  0.9457908414137192  0.5419876949448421  0.500534355081083  1.0000
  C   C116      1.0  0.05420915921623598  0.041987694995521394  0.9994656449946937  1.0000
  N   N1        1.0  0.37059833158560157  0.9274272066515733  0.7485471113011778  1.0000
  N   N2        1.0  0.6294016678948455  0.4274272067022524  0.751452888240948  1.0000
  N   N3        1.0  0.629401668299634  0.07257279324706835  0.25145288859044423  1.0000
  N   N4        1.0  0.3705983319903899  0.5725727931963891  0.24854711165067397  1.0000
  N   N5        1.0  0.41992966591252057  0.11231863063550698  0.824580662554825  1.0000
  N   N6        1.0  0.5800703336033889  0.6123186313083724  0.6754193375245191  1.0000
  N   N7        1.0  0.5800703340081773  0.8876813692631346  0.1754193378740154  1.0000
  N   N8        1.0  0.4199296662818466  0.38768136931381375  0.3245806623671028  1.0000
  O   O1        1.0  0.4630160545234536  0.8721164985409032  0.8557715716859958  1.0000
  O   O2        1.0  0.5369839449924558  0.37211649859158247  0.6442284283933483  1.0000
  O   O3        1.0  0.5369839453972443  0.12788350135773832  0.14422842874284453  1.0000
  O   O4        1.0  0.4630160548927797  0.6278835013070592  0.35577157149827365  1.0000
  O   O5        1.0  0.033286076519413954  0.4904832478881744  0.7485312834509266  1.0000
  O   O6        1.0  0.9667139229964956  0.9904832478374951  0.7514687166284176  1.0000
  O   O7        1.0  0.9667139233658216  0.5095167520104672  0.2514687164406954  1.0000
  O   O8        1.0  0.03328607688873997  0.009516752061146418  0.2485312832632043  1.0000
  O   O9        1.0  0.25941383730348666  0.39291932197310897  0.43997131635223796  1.0000
  O   O10       1.0  0.7405861618370291  0.8929193219224296  0.0600286833552294  1.0000
  O   O11       1.0  0.7405861625817488  0.6070806779255327  0.5600286835393841  1.0000
  O   O12       1.0  0.2594138380482064  0.10708067797621183  0.9399713165363927  1.0000
  O   O13       1.0  0.11820004129423961  0.5010414513492806  0.3774339598462991  1.0000
  O   O14       1.0  0.8817999589957843  0.0010414513999597629  0.12256604039481907  1.0000
  O   O15       1.0  0.8817999585909959  0.498958548549361  0.6225660400453228  1.0000
  O   O16       1.0  0.11820004092491361  0.9989585484986818  0.8774339600340213  1.0000
  Cl  Cl1       1.0  0.37923847509836395  0.17875971555172107  0.4900781993694662  1.0000
  Cl  Cl2       1.0  0.6207615251561975  0.6787597155010419  0.009921800334433628  1.0000
  Cl  Cl3       1.0  0.6207615259009173  0.8212402843469204  0.5099218005185883  1.0000
  Cl  Cl4       1.0  0.37923847472903793  0.3212402843975997  0.9900781995571883  1.0000
