data_image0
_chemical_formula_structural       H32C38N12O4Cl4
_chemical_formula_sum              "H32 C38 N12 O4 Cl4"
_cell_length_a       6.9465832621697325
_cell_length_b       10.087367162984444
_cell_length_c       14.217942365786174
_cell_angle_alpha    97.02833843066813
_cell_angle_beta     105.18711097602947
_cell_angle_gamma    99.63787990324816

_space_group_name_H-M_alt    "P 1"
_space_group_IT_number       1

loop_
  _space_group_symop_operation_xyz
  'x, y, z'

loop_
  _atom_site_type_symbol
  _atom_site_label
  _atom_site_symmetry_multiplicity
  _atom_site_fract_x
  _atom_site_fract_y
  _atom_site_fract_z
  _atom_site_occupancy
  H   H1        1.0  0.869298583390299  0.9246262820877739  0.17756615526538702  1.0000
  H   H2        1.0  0.13070141651065026  0.07537371831840185  0.8224338451319637  1.0000
  H   H3        1.0  0.36292655418327807  0.6488371261768173  0.24482082889693704  1.0000
  H   H4        1.0  0.6370734452854873  0.35116287404204416  0.7551791707602894  1.0000
  H   H5        1.0  0.9452575741747978  0.21084793894807774  0.20623383919963217  1.0000
  H   H6        1.0  0.05474242572615129  0.789152061458098  0.7937661611977185  1.0000
  H   H7        1.0  0.700800211381144  0.2510616342164721  0.3010700386271314  1.0000
  H   H8        1.0  0.2991997885198052  0.7489383661897037  0.6989299617702194  1.0000
  H   H9        1.0  0.7290617443948231  0.4879948469252519  0.39013597911768383  1.0000
  H   H10       1.0  0.270938256687632  0.5120051524661656  0.6098640212914911  1.0000
  H   H11       1.0  0.3780211445477014  0.5741693882739831  0.4761800444412526  1.0000
  H   H12       1.0  0.6219788550951356  0.4258306111283409  0.5238199559625962  1.0000
  H   H13       1.0  0.6326782430121481  0.6984451461098475  0.6323965359208024  1.0000
  H   H14       1.0  0.36732175645661724  0.301554854109014  0.3676034637364241  1.0000
  H   H15       1.0  0.8458425581726359  0.9266445898779344  0.6357070021871812  1.0000
  H   H16       1.0  0.15415744172831347  0.07335541052824131  0.3642929982101696  1.0000
  H   H17       1.0  0.7878467476360174  0.028999616955805208  0.4829028204422094  1.0000
  H   H18       1.0  0.2121532532723658  0.9710003832521499  0.5170971792203433  1.0000
  H   H19       1.0  0.5703375483792351  0.03547872167076439  0.3223838273923208  1.0000
  H   H20       1.0  0.4296624515217142  0.9645212787354114  0.6776161730050301  1.0000
  H   H21       1.0  0.3608132059893226  0.8968661693950972  0.2606652151625471  1.0000
  H   H22       1.0  0.6391867953512445  0.10313383100017215  0.7393347852401299  1.0000
  H   H23       1.0  0.7739883973923447  0.6811097667229312  0.12926791931072207  1.0000
  H   H24       1.0  0.22601160250860453  0.3188902336832445  0.8707320810866287  1.0000
  H   H25       1.0  0.8649563892923018  0.5566342493930028  0.059867804390655886  1.0000
  H   H26       1.0  0.13504361135796936  0.4433657498111005  0.9401321952783948  1.0000
  H   H27       1.0  0.5417333771903392  0.8802277380251604  0.9587343877698066  1.0000
  H   H28       1.0  0.4582666227106101  0.11977226238101539  0.04126561262754429  1.0000
  H   H29       1.0  0.13810777354411316  0.09608498322774271  0.1401083170848051  1.0000
  H   H30       1.0  0.8618922259246521  0.9039150169911189  0.8598916825724213  1.0000
  H   H31       1.0  0.45253728003411464  0.6131958620294536  0.9205823003788406  1.0000
  H   H32       1.0  0.5474627191765385  0.38680413718555606  0.07941769928488382  1.0000
  C   C1        1.0  0.141212896227614  0.5519051388861426  0.3003536748003362  1.0000
  C   C2        1.0  0.8587871034152232  0.4480948605161815  0.6996463256035127  1.0000
  C   C3        1.0  0.11434200828504319  0.4189449164371167  0.24774384757475115  1.0000
  C   C4        1.0  0.8856579926233399  0.5810550837708384  0.7522561520878014  1.0000
  C   C5        1.0  0.9583923537656505  0.3119546663234478  0.24701103102047586  1.0000
  C   C6        1.0  0.04160764613529881  0.688045334082728  0.752988969376875  1.0000
  C   C7        1.0  0.8212388325869129  0.33478733681484113  0.30012508001063987  1.0000
  C   C8        1.0  0.17876116731403627  0.6652126635913347  0.699874920386711  1.0000
  C   C9        1.0  0.837738723260539  0.4653934985176108  0.35075768390641465  1.0000
  C   C10       1.0  0.1622612766404101  0.534606501888565  0.649242316490936  1.0000
  C   C11       1.0  0.9932193390883748  0.5717121234389667  0.34986839637178885  1.0000
  C   C12       1.0  0.00678066081257462  0.428287876967209  0.6501316040255619  1.0000
  C   C13       1.0  0.43965097511589735  0.730521112719911  0.3918120675716454  1.0000
  C   C14       1.0  0.5603490243528682  0.26947888749895055  0.6081879320855811  1.0000
  C   C15       1.0  0.46813331688624726  0.6747322927769976  0.47877196642329634  1.0000
  C   C16       1.0  0.5318666830147021  0.32526770762917817  0.5212280339740545  1.0000
  C   C17       1.0  0.6113377951751483  0.7449823112962503  0.5662124078318378  1.0000
  C   C18       1.0  0.388662204725801  0.2550176891099255  0.433787592565513  1.0000
  C   C19       1.0  0.7298781175979387  0.8722310182157139  0.5682695548364247  1.0000
  C   C20       1.0  0.2701218818708267  0.12776898200314754  0.4317304448208018  1.0000
  C   C21       1.0  0.6996167712571731  0.9286162386860417  0.482117947896815  1.0000
  C   C22       1.0  0.3003832282115922  0.07138376153281978  0.5178820517604115  1.0000
  C   C23       1.0  0.55514792341121  0.8601880783149415  0.3939320826856615  1.0000
  C   C24       1.0  0.4448520764897393  0.1398119220912343  0.6060679177116893  1.0000
  C   C25       1.0  0.5235985370533364  0.9242253791472853  0.30226642436508405  1.0000
  C   C26       1.0  0.4764014642872307  0.07577462124798401  0.6977335760375928  1.0000
  C   C27       1.0  0.64125619039663  0.8710659449305652  0.23525673644178413  1.0000
  C   C28       1.0  0.3587438090721355  0.12893405528829624  0.7647432632154424  1.0000
  C   C29       1.0  0.1476872922766803  0.9943061230517408  0.10769968839258583  1.0000
  C   C30       1.0  0.8523127073661569  0.005693876350583164  0.8923003120112629  1.0000
  C   C31       1.0  0.29405888282870263  0.8585662768198332  0.02504566255855324  1.0000
  C   C32       1.0  0.7059411163819507  0.14143372239517657  0.9749543371051712  1.0000
  C   C33       1.0  0.1630262589276737  0.7402438279840535  0.03166254487791012  1.0000
  C   C34       1.0  0.8369737419807095  0.25975617222390157  0.9683374547846424  1.0000
  C   C35       1.0  0.012569818408260219  0.7577519515150198  0.0804909502824793  1.0000
  C   C36       1.0  0.9874301825001229  0.24224804869293515  0.9195090493800733  1.0000
  C   C37       1.0  0.37280281507689145  0.6756948472293403  0.9580418363554494  1.0000
  C   C38       1.0  0.6271971845659458  0.3243051521729838  0.0419581640483994  1.0000
  N   N1        1.0  0.2991395733837883  0.6578760497714696  0.3019376329358598  1.0000
  N   N2        1.0  0.7008604260849771  0.3421239504473919  0.6980623667213668  1.0000
  N   N3        1.0  0.013733118354457386  0.889433919436074  0.11867812912504985  1.0000
  N   N4        1.0  0.986266881114308  0.11056608078278775  0.8813218705321766  1.0000
  N   N5        1.0  0.291255555175943  0.9882782936352282  0.06182306158830064  1.0000
  N   N6        1.0  0.7087444454743282  0.011721705568875179  0.9381769380807501  1.0000
  N   N7        1.0  0.8748704560620255  0.6570224221246123  0.09131783396035485  1.0000
  N   N8        1.0  0.1251295448463578  0.3429775780833428  0.9086821657021977  1.0000
  N   N9        1.0  0.21556171876293723  0.6262405528484725  0.9890996108440027  1.0000
  N   N10       1.0  0.7844382807058282  0.3737594473703892  0.01090038881322388  1.0000
  N   N11       1.0  0.4258003595481685  0.8151594111825295  0.9772864866970459  1.0000
  N   N12       1.0  0.5741996396624848  0.18484058803248032  0.022713512966678694  1.0000
  O   O1        1.0  0.6059302133994959  0.7482585638134973  0.19768612247152634  1.0000
  O   O2        1.0  0.39406978650145313  0.2517414365926785  0.8023138779258243  1.0000
  O   O3        1.0  0.7831225409317977  0.9656303658640861  0.22201551552455043  1.0000
  O   O4        1.0  0.21687745853696783  0.03436963435477542  0.7779844841326761  1.0000
  Cl  Cl1       1.0  0.2875498655281636  0.3873699863371726  0.183315460586852  1.0000
  Cl  Cl2       1.0  0.7124501341146735  0.6126300130651514  0.8166845398169967  1.0000
  Cl  Cl3       1.0  0.999377146900279  0.7323768040918064  0.4094733119904403  1.0000
  Cl  Cl4       1.0  0.000622854182176077  0.26762319529961126  0.5905266884187347  1.0000
