data_image0
_chemical_formula_structural       H48C22N2O4I2
_chemical_formula_sum              "H48 C22 N2 O4 I2"
_cell_length_a       5.90182852414446
_cell_length_b       7.820581624253578
_cell_length_c       15.087232914369952
_cell_angle_alpha    95.68460187204104
_cell_angle_beta     98.8842384224046
_cell_angle_gamma    92.99055441019236

_space_group_name_H-M_alt    "P 1"
_space_group_IT_number       1

loop_
  _space_group_symop_operation_xyz
  'x, y, z'

loop_
  _atom_site_type_symbol
  _atom_site_label
  _atom_site_symmetry_multiplicity
  _atom_site_fract_x
  _atom_site_fract_y
  _atom_site_fract_z
  _atom_site_occupancy
  H   H1        1.0  0.40731123135252345  0.12550229365342014  0.7220522972923801  1.0000
  H   H2        1.0  0.5926887698835651  0.8744977056209882  0.27794770268891267  1.0000
  H   H3        1.0  0.6615439887187647  0.2510388601246019  0.7742933806355996  1.0000
  H   H4        1.0  0.3384560108213979  0.7489611391459315  0.22570661934241754  1.0000
  H   H5        1.0  0.19168497497639186  0.39271699802847165  0.7143922974251009  1.0000
  H   H6        1.0  0.8083150245637708  0.6072830012420619  0.2856077025529164  1.0000
  H   H7        1.0  0.44068359232378734  0.52120731354378  0.7643429921727931  1.0000
  H   H8        1.0  0.5593164089123013  0.4787926857306282  0.2356570078084995  1.0000
  H   H9        1.0  0.23169826705309  0.22413228132201307  0.8514897060119909  1.0000
  H   H10       1.0  0.7683017328384757  0.7758677193734147  0.14851029463809287  1.0000
  H   H11       1.0  0.46502860964894255  0.3698004506703521  0.9023749672841901  1.0000
  H   H12       1.0  0.5349713916703356  0.6301995498838888  0.09762503269433373  1.0000
  H   H13       1.0  0.9713120725256561  0.46532696500949006  0.8416638510101602  1.0000
  H   H14       1.0  0.0286879290618356  0.5346730356898124  0.1583361496431991  1.0000
  H   H15       1.0  0.19943392443971358  0.6135047967195677  0.8917227154314638  1.0000
  H   H16       1.0  0.8005660751836388  0.3864952038307985  0.10827728454378456  1.0000
  H   H17       1.0  0.24785294837167202  0.4556060175958441  0.030263257769723606  1.0000
  H   H18       1.0  0.7521470529476062  0.5443939829583968  0.9697367422088001  1.0000
  H   H19       1.0  0.02057299692758465  0.3055203941923794  0.9785819650114574  1.0000
  H   H20       1.0  0.979427002612578  0.6944796050781542  0.021418034966559817  1.0000
  H   H21       1.0  0.8626720323924654  0.13010970549906087  0.6716221149938745  1.0000
  H   H22       1.0  0.137327967230887  0.8698902950513052  0.3283778849813739  1.0000
  H   H23       1.0  0.7691569139050201  0.1295934566269532  0.5520603533646019  1.0000
  H   H24       1.0  0.23084308571833215  0.870406543923413  0.4479396466106464  1.0000
  H   H25       1.0  0.6110621745666698  1.0709805828097816e-05  0.6177595056630751  1.0000
  H   H26       1.0  0.3889378250566825  0.999989290744538  0.3822404943121733  1.0000
  H   H27       1.0  0.5880692389360832  0.540512874191664  0.6400198720893864  1.0000
  H   H28       1.0  0.4119307623000053  0.45948712508274414  0.35998012789190625  1.0000
  H   H29       1.0  0.76342519976402  0.43014985071951173  0.5682909281244725  1.0000
  H   H30       1.0  0.23657479977614268  0.5698501485510218  0.4317090718535448  1.0000
  H   H31       1.0  0.8447308073621316  0.4498625037608985  0.6885529514348223  1.0000
  H   H32       1.0  0.15526919226122077  0.5501374967894677  0.31144704854042604  1.0000
  H   H33       1.0  0.25726883384391974  0.13264813961570512  0.5679128736623583  1.0000
  H   H34       1.0  0.742731165696243  0.8673518596548284  0.432087126315659  1.0000
  H   H35       1.0  0.41702017053110657  0.2499031144856905  0.4981824381430128  1.0000
  H   H36       1.0  0.582979829009056  0.750096884784843  0.5018175618350045  1.0000
  H   H37       1.0  0.25809955149003017  0.3647035503621504  0.5739362964250762  1.0000
  H   H38       1.0  0.7419004481333222  0.6352964501882157  0.42606370355017226  1.0000
  H   H39       1.0  0.9192607024389192  0.7909313642697126  0.7430487368130666  1.0000
  H   H40       1.0  0.08073929718443312  0.2090686362806536  0.2569512631621817  1.0000
  H   H41       1.0  0.5677556599337965  0.7508282758213483  0.903016424049925  1.0000
  H   H42       1.0  0.43224433968955583  0.24917172472901775  0.09698357592532338  1.0000
  H   H43       1.0  0.4235916004609594  0.9047894455112164  0.8433787407247043  1.0000
  H   H44       1.0  0.576408399162393  0.09521055503914976  0.15662125925054401  1.0000
  H   H45       1.0  0.6327985274776089  0.14127018084162712  0.9605624739849009  1.0000
  H   H46       1.0  0.3672014721457434  0.8587298197087391  0.039437525990347506  1.0000
  H   H47       1.0  0.7603719229928714  0.9824043935029352  0.022740692526716493  1.0000
  H   H48       1.0  0.2396280766304809  0.01759560704743105  0.9772593074485318  1.0000
  C   C1        1.0  0.4993746426204067  0.2532524997101492  0.7277369510713828  1.0000
  C   C2        1.0  0.5006253569197558  0.7467474995603842  0.27226304890663444  1.0000
  C   C3        1.0  0.35420998748574845  0.39232854156593516  0.7610141208557142  1.0000
  C   C4        1.0  0.645790012137604  0.6076714589844311  0.2389858791195342  1.0000
  C   C5        1.0  0.30288988074860845  0.3577431581217299  0.8541246812534982  1.0000
  C   C6        1.0  0.6971101187915543  0.6422568411488035  0.14587531872451917  1.0000
  C   C7        1.0  0.13430101518188703  0.47813312851503526  0.889367262267441  1.0000
  C   C8        1.0  0.8656989861373913  0.5218668720392056  0.1106327377110829  1.0000
  C   C9        1.0  0.085358412658217  0.441243634736514  0.9820937748347824  1.0000
  C   C10       1.0  0.9146415868819456  0.5587563645340196  0.017906225143234863  1.0000
  C   C11       1.0  0.7139776037558162  0.12087278579491843  0.6177087262949259  1.0000
  C   C12       1.0  0.28602239586753614  0.8791272147554478  0.38229127368032245  1.0000
  C   C13       1.0  0.7001252437660234  0.4343151045360811  0.632967925883861  1.0000
  C   C14       1.0  0.2998747575532549  0.5656848960181599  0.3670320740946629  1.0000
  C   C15       1.0  0.3582228304731369  0.25244023333451554  0.5636865253736246  1.0000
  C   C16       1.0  0.6417771690670258  0.747559765936018  0.43631347460439257  1.0000
  C   C17       1.0  0.7767332244951016  0.9095342892581642  0.8369292565183583  1.0000
  C   C18       1.0  0.22326677512825074  0.090465711292202  0.16307074345689013  1.0000
  C   C19       1.0  0.5824603896669873  0.8862146423479034  0.8898127587707662  1.0000
  C   C20       1.0  0.41753960987317534  0.11378535692263024  0.11018724120725104  1.0000
  C   C21       1.0  0.6053314490079886  0.008327237917344101  0.9766087973565004  1.0000
  C   C22       1.0  0.39466855061536366  0.991672762633022  0.02339120261874795  1.0000
  N   N1        1.0  0.5666589348051896  0.267279304478814  0.6355945326776685  1.0000
  N   N2        1.0  0.43334106473497297  0.7327206947917195  0.3644054673003486  1.0000
  O   O1        1.0  0.8997183075361689  0.042986799741861946  0.8414563940813147  1.0000
  O   O2        1.0  0.10028169200399378  0.9570131995286715  0.15854360589670255  1.0000
  O   O3        1.0  0.7978176023915549  0.7679114791676263  0.7812948474469577  1.0000
  O   O4        1.0  0.20218239714860778  0.23208852010290718  0.21870515253105957  1.0000
  I   I1        1.0  0.833510763117217  0.21919896065682246  0.3748220620112327  1.0000
  I   I2        1.0  0.16648923642294564  0.7808010386137111  0.6251779379667844  1.0000
