data_image0
_chemical_formula_structural       H120C48N4P8Cl16
_chemical_formula_sum              "H120 C48 N4 P8 Cl16"
_cell_length_a       9.042029327558883
_cell_length_b       12.172862044183898
_cell_length_c       18.66992914536426
_cell_angle_alpha    90.0
_cell_angle_beta     97.91616583272537
_cell_angle_gamma    90.0

_space_group_name_H-M_alt    "P 1"
_space_group_IT_number       1

loop_
  _space_group_symop_operation_xyz
  'x, y, z'

loop_
  _atom_site_type_symbol
  _atom_site_label
  _atom_site_symmetry_multiplicity
  _atom_site_fract_x
  _atom_site_fract_y
  _atom_site_fract_z
  _atom_site_occupancy
  H   H1        1.0  0.5277292394208196  0.32538292437910776  0.38393222326435983  1.0000
  H   H2        1.0  0.4722707613735462  0.32538292437910776  0.11606777708425947  1.0000
  H   H3        1.0  0.02772923883495845  0.8253829242072541  0.38393222312290426  1.0000
  H   H4        1.0  0.9722707607172699  0.8253829242072541  0.11606777667516044  1.0000
  H   H5        1.0  0.4722707608626213  0.6746170760986848  0.6160677766092838  1.0000
  H   H6        1.0  0.527729239043463  0.6746170760986848  0.8839322233300679  1.0000
  H   H7        1.0  0.9722707614484823  0.17461707627053827  0.6160677767507393  1.0000
  H   H8        1.0  0.027729239566170995  0.17461707627053827  0.883932223198483  1.0000
  H   H9        1.0  0.24685303597057456  0.18083108245293322  0.3829686935689244  1.0000
  H   H10       1.0  0.753146963715222  0.18083108245293322  0.11703130676982407  1.0000
  H   H11       1.0  0.7468530365564356  0.6808310822810797  0.38296869371037995  1.0000
  H   H12       1.0  0.25314696423793004  0.6808310822810797  0.1170313066382393  1.0000
  H   H13       1.0  0.7531469643128664  0.8191689172033597  0.6170313063047193  1.0000
  H   H14       1.0  0.24685303670178715  0.8191689172033597  0.8829686936445034  1.0000
  H   H15       1.0  0.2531469638605735  0.31916891737521325  0.6170313067039475  1.0000
  H   H16       1.0  0.7468530360455109  0.31916891737521325  0.8829686932354044  1.0000
  H   H17       1.0  0.27117492792816467  0.28490143217034286  0.3177045562287079  1.0000
  H   H18       1.0  0.7288250716240636  0.28490143217034286  0.18229544356935679  1.0000
  H   H19       1.0  0.7711749285140258  0.7849014328199889  0.3177045563701635  1.0000
  H   H20       1.0  0.22882507103820257  0.7849014328199889  0.18229544342790122  1.0000
  H   H21       1.0  0.7288250712467071  0.71509856748595  0.682295443635065  1.0000
  H   H22       1.0  0.27117492865937726  0.71509856748595  0.8177045563042868  1.0000
  H   H23       1.0  0.22882507176941516  0.21509856765780364  0.6822954435034801  1.0000
  H   H24       1.0  0.7711749281366691  0.21509856765780364  0.8177045564358716  1.0000
  H   H25       1.0  0.2658623305484935  0.3207878603919392  0.40979232297755197  1.0000
  H   H26       1.0  0.7341376691373032  0.3207878603919392  0.0902076773611965  1.0000
  H   H27       1.0  0.7658623310007865  0.8207878602200857  0.4097923225783237  1.0000
  H   H28       1.0  0.2341376696600111  0.8207878602200857  0.09020767722961173  1.0000
  H   H29       1.0  0.7341376698685156  0.6792121400858533  0.5902076774367755  1.0000
  H   H30       1.0  0.265862330171137  0.6792121400858533  0.9097923230432602  1.0000
  H   H31       1.0  0.23413766928265456  0.17921213943620729  0.5902076772953199  1.0000
  H   H32       1.0  0.7658623306234298  0.17921213943620729  0.909792322644032  1.0000
  H   H33       1.0  0.47704811482724896  0.27589139660090145  0.5059610268006485  1.0000
  H   H34       1.0  0.5229518850788354  0.27589139660090145  0.9940389731387033  1.0000
  H   H35       1.0  0.9770481143045409  0.7758913964290479  0.5059610269322332  1.0000
  H   H36       1.0  0.022951885601543508  0.7758913964290479  0.9940389730071185  1.0000
  H   H37       1.0  0.522951885456192  0.7241086030553916  0.4940389730729951  1.0000
  H   H38       1.0  0.47704811409603637  0.7241086030553916  0.005961026725069551  1.0000
  H   H39       1.0  0.022951886112468296  0.22410860322724505  0.4940389734820942  1.0000
  H   H40       1.0  0.9770481146818975  0.22410860322724505  0.005961026866525119  1.0000
  H   H41       1.0  0.6365230776612836  0.2014911276491376  0.4869633249105303  1.0000
  H   H42       1.0  0.36347692189094477  0.2014911276491376  0.013036674887534367  1.0000
  H   H43       1.0  0.13652307818399156  0.7014911274772841  0.48696332477894555  1.0000
  H   H44       1.0  0.8634769213682368  0.7014911274772841  0.013036675019119138  1.0000
  H   H45       1.0  0.36347692151358824  0.7985088728286548  0.5130366749532425  1.0000
  H   H46       1.0  0.6365230783924961  0.7985088728286548  0.9869633249861093  1.0000
  H   H47       1.0  0.8634769220994494  0.2985088721790089  0.5130366750946981  1.0000
  H   H48       1.0  0.13652307780663503  0.2985088721790089  0.9869633248446538  1.0000
  H   H49       1.0  0.46113367367343266  0.13426223053114142  0.48305203317136464  1.0000
  H   H50       1.0  0.5388663260123638  0.13426223053114142  0.01694796716738388  1.0000
  H   H51       1.0  0.9611336741257255  0.6342622303592879  0.4830520327721363  1.0000
  H   H52       1.0  0.038866326535071924  0.6342622303592879  0.01694796703579911  1.0000
  H   H53       1.0  0.5388663256350074  0.8657377691251515  0.516947967233092  1.0000
  H   H54       1.0  0.4611336744046453  0.8657377691251515  0.9830520332469436  1.0000
  H   H55       1.0  0.038866326157715354  0.3657377692970051  0.5169479671015071  1.0000
  H   H56       1.0  0.9611336737483691  0.3657377692970051  0.9830520328378446  1.0000
  H   H57       1.0  0.7701145413789503  0.11169332528906951  0.4086233678139871  1.0000
  H   H58       1.0  0.22988545830684626  0.11169332528906951  0.09137663252476139  1.0000
  H   H59       1.0  0.2701145419016583  0.6116933259387155  0.4086233676824023  1.0000
  H   H60       1.0  0.7298854577841383  0.6116933259387155  0.09137663265634616  1.0000
  H   H61       1.0  0.2298854579294897  0.8883066743672234  0.5913766325904695  1.0000
  H   H62       1.0  0.7701145419765948  0.8883066743672234  0.9086233673488823  1.0000
  H   H63       1.0  0.7298854583817826  0.38830667453907697  0.5913766321912413  1.0000
  H   H64       1.0  0.2701145415243018  0.38830667453907697  0.9086233677481105  1.0000
  H   H65       1.0  0.9479382155152014  0.2455456012851241  0.3626768594678648  1.0000
  H   H66       1.0  0.05206178527916424  0.2455456012851241  0.13732314088075442  1.0000
  H   H67       1.0  0.44793821492934033  0.7455456011132706  0.36267685932640925  1.0000
  H   H68       1.0  0.552061784622888  0.7455456011132706  0.13732314047165536  1.0000
  H   H69       1.0  0.0520617849018077  0.7544543991926683  0.6373231409464626  1.0000
  H   H70       1.0  0.9479382151378448  0.7544543991926683  0.862676859533573  1.0000
  H   H71       1.0  0.5520617853541007  0.25445439936452185  0.6373231405472344  1.0000
  H   H72       1.0  0.4479382145519838  0.25445439936452185  0.8626768593921175  1.0000
  H   H73       1.0  0.7875978010214764  0.3160178671241897  0.38427514343053365  1.0000
  H   H74       1.0  0.21240219963932103  0.3160178671241897  0.11572485637740182  1.0000
  H   H75       1.0  0.28759780056918355  0.8160178677738357  0.3842751438297619  1.0000
  H   H76       1.0  0.7124021991166131  0.8160178677738357  0.11572485650898659  1.0000
  H   H77       1.0  0.2124021992619645  0.6839821325321033  0.6157248564431099  1.0000
  H   H78       1.0  0.7875978006441199  0.6839821325321033  0.8842751434962418  1.0000
  H   H79       1.0  0.7124021998478257  0.18398213270395675  0.6157248565845655  1.0000
  H   H80       1.0  0.2875978013003961  0.18398213270395675  0.8842751439053408  1.0000
  H   H81       1.0  0.806512466967901  0.28730385732671543  0.2926591033524883  1.0000
  H   H82       1.0  0.19348753382646458  0.28730385732671543  0.20734089699613098  1.0000
  H   H83       1.0  0.30651246638204  0.787303857154862  0.2926591032110327  1.0000
  H   H84       1.0  0.6934875331701883  0.787303857154862  0.20734089658703195  1.0000
  H   H85       1.0  0.19348753331553983  0.712696143151077  0.7073408965211554  1.0000
  H   H86       1.0  0.8065124665905445  0.712696143151077  0.7926591034181965  1.0000
  H   H87       1.0  0.6934875327928319  0.21269614332293055  0.7073408966527401  1.0000
  H   H88       1.0  0.3065124671132526  0.21269614332293055  0.7926591032866117  1.0000
  H   H89       1.0  0.8071685559563806  0.08887145324356036  0.2473462434039154  1.0000
  H   H90       1.0  0.19283144359584775  0.08887145324356036  0.2526537563941492  1.0000
  H   H91       1.0  0.3071685553705194  0.5888714530717069  0.24734624326245983  1.0000
  H   H92       1.0  0.6928314441817089  0.5888714530717069  0.25265375653560485  1.0000
  H   H93       1.0  0.19283144432706037  0.9111285472342321  0.7526537564697282  1.0000
  H   H94       1.0  0.807168555579024  0.9111285472342321  0.7473462434696234  1.0000
  H   H95       1.0  0.6928314438043524  0.41112854658458614  0.752653756601313  1.0000
  H   H96       1.0  0.307168556101732  0.41112854658458614  0.7473462433380387  1.0000
  H   H97       1.0  0.7619796224740034  0.9787084521911811  0.30292992920435446  1.0000
  H   H98       1.0  0.23802037707822485  0.9787084521911811  0.19707007059371015  1.0000
  H   H99       1.0  0.2619796231302797  0.47870845154153513  0.30292992961345355  1.0000
  H   H100      1.0  0.738020377664086  0.47870845154153513  0.19707007073516572  1.0000
  H   H101      1.0  0.2380203767008683  0.02129154828661135  0.6970700706594183  1.0000
  H   H102      1.0  0.7619796232052161  0.02129154828661135  0.8029299292799335  1.0000
  H   H103      1.0  0.7380203772867295  0.5212915481147579  0.6970700708008739  1.0000
  H   H104      1.0  0.261979622619355  0.5212915481147579  0.8029299291384779  1.0000
  H   H105      1.0  0.9360174020302612  0.04693292242418591  0.32331974282849807  1.0000
  H   H106      1.0  0.06398259863053639  0.04693292242418591  0.17668025697943737  1.0000
  H   H107      1.0  0.43601740157796814  0.5469329222523324  0.3233197432277263  1.0000
  H   H108      1.0  0.5639825981078285  0.5469329222523324  0.17668025711102217  1.0000
  H   H109      1.0  0.06398259825317987  0.9530670780536066  0.6766802570451456  1.0000
  H   H110      1.0  0.9360174016529044  0.9530670780536066  0.8233197428942062  1.0000
  H   H111      1.0  0.563982598839041  0.45306707740396057  0.6766802571866011  1.0000
  H   H112      1.0  0.4360174023091808  0.45306707740396057  0.8233197433033052  1.0000
  H   H113      1.0  0.042831138117337866  0.9978488399779073  0.4899887763688726  1.0000
  H   H114      1.0  0.9571688614348905  0.9978488399779073  0.010011223429192037  1.0000
  H   H115      1.0  0.542831138703199  0.49784884014976083  0.4899887765103282  1.0000
  H   H116      1.0  0.45716886209116675  0.49784884014976083  0.010011223838291072  1.0000
  H   H117      1.0  0.9571688621661031  0.0021511596783856893  0.5100112235047709  1.0000
  H   H118      1.0  0.04283113773998135  0.0021511596783856893  0.9899887764345809  1.0000
  H   H119      1.0  0.4571688617138102  0.5021511595065321  0.5100112239039992  1.0000
  H   H120      1.0  0.5428311383258425  0.5021511595065321  0.9899887765760363  1.0000
  C   C1        1.0  0.4732590888711258  0.24613962510415313  0.39282248304676803  1.0000
  C   C2        1.0  0.5267409117896716  0.24613962510415313  0.10717751676116749  1.0000
  C   C3        1.0  0.9732590883484177  0.7461396249322997  0.3928224831783528  1.0000
  C   C4        1.0  0.026740911337378825  0.7461396249322997  0.10717751716039572  1.0000
  C   C5        1.0  0.5267409114123153  0.7538603753736393  0.6071775168268757  1.0000
  C   C6        1.0  0.47325908849376913  0.7538603753736393  0.8928224831124759  1.0000
  C   C7        1.0  0.026740910960022284  0.25386037472399337  0.6071775172261039  1.0000
  C   C8        1.0  0.9732590890796303  0.25386037472399337  0.8928224832539315  1.0000
  C   C9        1.0  0.30370481592781606  0.2584063459014487  0.3737721539199839  1.0000
  C   C10       1.0  0.6962951836244122  0.2584063459014487  0.1262278458780808  1.0000
  C   C11       1.0  0.8037048165136772  0.7584063465510946  0.37377215406143943  1.0000
  C   C12       1.0  0.19629518428068848  0.7584063465510946  0.1262278462871798  1.0000
  C   C13       1.0  0.6962951832470556  0.7415936537548443  0.626227845943789  1.0000
  C   C14       1.0  0.30370481665902865  0.7415936537548443  0.8737721539955627  1.0000
  C   C15       1.0  0.19629518376976374  0.2415936539266978  0.6262278458122041  1.0000
  C   C16       1.0  0.8037048161363206  0.2415936539266978  0.8737721541271475  1.0000
  C   C17       1.0  0.5158540909823501  0.21162467878544888  0.4716761660522494  1.0000
  C   C18       1.0  0.48414590981201566  0.21162467878544888  0.028323834296369876  1.0000
  C   C19       1.0  0.015854090396489016  0.7116246786135954  0.47167616591079387  1.0000
  C   C20       1.0  0.9841459092893076  0.7116246786135954  0.02832383442795464  1.0000
  C   C21       1.0  0.484145909434659  0.7883753216923436  0.528323834362078  1.0000
  C   C22       1.0  0.5158540904714254  0.7883753216923436  0.9716761655772738  1.0000
  C   C23       1.0  0.9841459098869518  0.2883753218641971  0.5283238339628498  1.0000
  C   C24       1.0  0.015854090019132454  0.2883753218641971  0.971676165976502  1.0000
  C   C25       1.0  0.7534432682350662  0.14214828802949828  0.3523475077719704  1.0000
  C   C26       1.0  0.2465567313171622  0.14214828802949828  0.14765249202609426  1.0000
  C   C27       1.0  0.2534432687577742  0.6421482878576448  0.35234750764038564  1.0000
  C   C28       1.0  0.7465567319030234  0.6421482878576448  0.14765249216754986  1.0000
  C   C29       1.0  0.2465567320483748  0.8578517124482942  0.6476524921016732  1.0000
  C   C30       1.0  0.7534432678577095  0.8578517124482942  0.8523475078376785  1.0000
  C   C31       1.0  0.7465567315256667  0.35785171262014764  0.647652492233258  1.0000
  C   C32       1.0  0.2534432683804176  0.35785171262014764  0.8523475077060937  1.0000
  C   C33       1.0  0.8267133304184394  0.2548405180918138  0.3479919340979925  1.0000
  C   C34       1.0  0.1732866692673572  0.2548405180918138  0.15200806624075602  1.0000
  C   C35       1.0  0.3267133309411474  0.7548405179199603  0.34799193396640765  1.0000
  C   C36       1.0  0.6732866698532184  0.7548405179199603  0.1520080663822116  1.0000
  C   C37       1.0  0.17328666999856981  0.7451594823859786  0.652008066316335  1.0000
  C   C38       1.0  0.8267133310160838  0.7451594823859786  0.8479919336328876  1.0000
  C   C39       1.0  0.6732866693422935  0.2451594825578322  0.6520080659072359  1.0000
  C   C40       1.0  0.32671333056379087  0.2451594825578322  0.8479919340321158  1.0000
  C   C41       1.0  0.8170906613519558  0.05891049593736499  0.30326738436366113  1.0000
  C   C42       1.0  0.1829093383338407  0.05891049593736499  0.19673261597508732  1.0000
  C   C43       1.0  0.3170906618746639  0.5589104957655116  0.3032673842320764  1.0000
  C   C44       1.0  0.6829093389197017  0.5589104957655116  0.19673261611654289  1.0000
  C   C45       1.0  0.18290933906505327  0.941089503718928  0.6967326160506662  1.0000
  C   C46       1.0  0.8170906608410311  0.941089503718928  0.8032673838886855  1.0000
  C   C47       1.0  0.682909338408777  0.44108950389078144  0.6967326156415672  1.0000
  C   C48       1.0  0.31709066149730736  0.44108950389078144  0.8032673842977845  1.0000
  N   N1        1.0  0.49999999977611415  0.19699328648398945  0.24999999989903235  1.0000
  N   N2        1.0  2.988221710519342e-10  0.6969932863121359  0.24999999976744755  1.0000
  N   N3        1.0  0.5000000005073267  0.8030067139938031  0.7499999999746113  1.0000
  N   N4        1.0  0.9999999999214656  0.303006713344157  0.7499999998331558  1.0000
  P   P1        1.0  0.5509421142864265  0.1555226275569709  0.3298511165082077  1.0000
  P   P2        1.0  0.4490578853993701  0.1555226275569709  0.17014888383054075  1.0000
  P   P3        1.0  0.05094211480913447  0.6555226273851174  0.32985111637662295  1.0000
  P   P4        1.0  0.949057885851663  0.6555226273851174  0.17014888343131251  1.0000
  P   P5        1.0  0.44905788599701446  0.844477372099322  0.6701488833654358  1.0000
  P   P6        1.0  0.5509421139090699  0.844477372099322  0.8298511165739159  1.0000
  P   P7        1.0  0.9490578854743065  0.3444773722711756  0.6701488834970206  1.0000
  P   P8        1.0  0.05094211443177795  0.3444773722711756  0.8298511164423311  1.0000
  Cl  Cl1       1.0  0.47632490143535444  0.0015802372466046982  0.347267626526569  1.0000
  Cl  Cl2       1.0  0.5236750981168738  0.0015802372466046982  0.15273237327149566  1.0000
  Cl  Cl3       1.0  0.9763249020212155  0.5015802370747512  0.3472676266680246  1.0000
  Cl  Cl4       1.0  0.02367509863958197  0.5015802370747512  0.15273237313991087  1.0000
  Cl  Cl5       1.0  0.5236750988480866  0.9984197632311879  0.6527323733470746  1.0000
  Cl  Cl6       1.0  0.4763249010579978  0.9984197632311879  0.8472676265922772  1.0000
  Cl  Cl7       1.0  0.023675098262225438  0.4984197634030413  0.652732373205619  1.0000
  Cl  Cl8       1.0  0.976324901643859  0.4984197634030413  0.8472676267337328  1.0000
  Cl  Cl9       1.0  0.2047144966250087  0.9897396131057303  0.45235258519482807  1.0000
  Cl  Cl10      1.0  0.7952855029272196  0.9897396131057303  0.04764741460323656  1.0000
  Cl  Cl11      1.0  0.7047144972108698  0.48973961327758375  0.45235258533628364  1.0000
  Cl  Cl12      1.0  0.2952855035834959  0.48973961327758375  0.04764741501233559  1.0000
  Cl  Cl13      1.0  0.7952855036584321  0.010260387372062222  0.5476474146788154  1.0000
  Cl  Cl14      1.0  0.20471449735622133  0.010260387372062222  0.952352585270407  1.0000
  Cl  Cl15      1.0  0.29528550320613933  0.5102603872002087  0.5476474150780437  1.0000
  Cl  Cl16      1.0  0.7047144968335134  0.5102603872002087  0.952352585401992  1.0000
