data_image0
_chemical_formula_structural       H68C48N12O32P8
_chemical_formula_sum              "H68 C48 N12 O32 P8"
_cell_length_a       4.498903414967264
_cell_length_b       10.45483025897338
_cell_length_c       34.6876508560433
_cell_angle_alpha    90.0
_cell_angle_beta     90.0
_cell_angle_gamma    90.0

_space_group_name_H-M_alt    "P 1"
_space_group_IT_number       1

loop_
  _space_group_symop_operation_xyz
  'x, y, z'

loop_
  _atom_site_type_symbol
  _atom_site_label
  _atom_site_symmetry_multiplicity
  _atom_site_fract_x
  _atom_site_fract_y
  _atom_site_fract_z
  _atom_site_occupancy
  H   H1        1.0  0.9384396152969469  0.8071639692817595  0.15424745487104202  1.0000
  H   H2        1.0  0.5615603841582768  0.19283603081643613  0.6542474549280753  1.0000
  H   H3        1.0  0.43843961473761767  0.6928360308655339  0.8457525452430246  1.0000
  H   H4        1.0  0.06156038359894757  0.30716396923266165  0.3457525451859913  1.0000
  H   H5        1.0  0.42322672757664764  0.9566593366176874  0.08316597517578518  1.0000
  H   H6        1.0  0.07677327298268154  0.043340663480508225  0.5831659752328184  1.0000
  H   H7        1.0  0.923226725913213  0.5433406635296061  0.9168340249382815  1.0000
  H   H8        1.0  0.5767732735420107  0.45665933656858954  0.41683402488124816  1.0000
  H   H9        1.0  0.7212326273120514  0.7596361617811533  0.07552750172886283  1.0000
  H   H10       1.0  0.7787673743659361  0.2403638383170424  0.5755275017858962  1.0000
  H   H11       1.0  0.22123262675272218  0.7403638383661402  0.9244724980969168  1.0000
  H   H12       1.0  0.278767373806607  0.25963616173205545  0.42447249803988346  1.0000
  H   H13       1.0  0.22184285990217512  0.008202688888841035  0.022410393059654754  1.0000
  H   H14       1.0  0.278157140657154  0.9917973112093545  0.522410393116688  1.0000
  H   H15       1.0  0.7218428582387404  0.49179731116025677  0.9775896070544119  1.0000
  H   H16       1.0  0.7781571412164833  0.5082026889379389  0.4775896069973785  1.0000
  H   H17       1.0  0.5539493672411133  0.8027949389992454  0.9719863656931959  1.0000
  H   H18       1.0  0.9460506322141103  0.19720506014245462  0.4719863659244496  1.0000
  H   H19       1.0  0.05394936890454806  0.6972050601915524  0.028013634132583683  1.0000
  H   H20       1.0  0.4460506316547811  0.30279493895014753  0.528013634189617  1.0000
  H   H21       1.0  0.5740226632579956  0.17406836026228337  0.040276280622116516  1.0000
  H   H22       1.0  0.925977336197228  0.8259316398359122  0.5402762806791498  1.0000
  H   H23       1.0  0.07402266269866635  0.32593163978681444  0.9597237194919501  1.0000
  H   H24       1.0  0.4259773378606628  0.6740683603113812  0.4597237194349168  1.0000
  H   H25       1.0  0.5314737791536692  0.33774063017133393  0.027843647988971054  1.0000
  H   H26       1.0  0.9685262225243182  0.6622593699268617  0.5278436480460044  1.0000
  H   H27       1.0  0.03147377859434004  0.1622593698777639  0.9721563521250954  1.0000
  H   H28       1.0  0.46852622196498916  0.8377406302204318  0.4721563520680623  1.0000
  H   H29       1.0  0.3198710635157015  0.5873753201042415  0.16770467951670215  1.0000
  H   H30       1.0  0.18012893704362767  0.4126246799939541  0.6677046795737355  1.0000
  H   H31       1.0  0.8198710640750306  0.912624680043052  0.8322953205973646  1.0000
  H   H32       1.0  0.6801289353801929  0.08737532005514369  0.3322953205403312  1.0000
  H   H33       1.0  0.9047779524356867  0.10417610358285712  0.09057191341778761  1.0000
  H   H34       1.0  0.5952220470195368  0.8958238955588428  0.590571913474821  1.0000
  H   H35       1.0  0.40477795187635757  0.395823895509745  0.909428086407992  1.0000
  H   H36       1.0  0.09522204646020772  0.604176103631955  0.4094280866392457  1.0000
  H   H37       1.0  0.24727859600162028  0.1671126538377258  0.14268661030234348  1.0000
  H   H38       1.0  0.25272140455770886  0.8328873462604699  0.6426866100710897  1.0000
  H   H39       1.0  0.7472785943381856  0.332887346211372  0.8573133898117231  1.0000
  H   H40       1.0  0.752721405117038  0.667112652930328  0.35731338975468985  1.0000
  H   H41       1.0  0.06115432909377139  0.5683618569416631  0.11930281664718204  1.0000
  H   H42       1.0  0.43884567146555775  0.43163814315653243  0.6193028167042154  1.0000
  H   H43       1.0  0.5611543274303367  0.9316381432056302  0.8806971831785976  1.0000
  H   H44       1.0  0.9388456720248869  0.06836185689256533  0.38069718312156425  1.0000
  H   H45       1.0  0.7276166407817446  0.5048121499122502  0.06721527899586195  1.0000
  H   H46       1.0  0.772383358673479  0.4951878501859454  0.5672152790528953  1.0000
  H   H47       1.0  0.22761664022241546  0.9951878492785475  0.9327847211182047  1.0000
  H   H48       1.0  0.2723833581141498  0.004812149863152369  0.4327847210611714  1.0000
  H   H49       1.0  0.7604891091054675  0.32450557646195044  0.21094614681078036  1.0000
  H   H50       1.0  0.7395108903497561  0.6754944236362451  0.7109461468678137  1.0000
  H   H51       1.0  0.26048910854613827  0.17549442358714734  0.7890538530149992  1.0000
  H   H52       1.0  0.239510889790427  0.8245055765110483  0.28905385295796593  1.0000
  H   H53       1.0  0.04536127611032186  0.3512780168619044  0.2721381415875093  1.0000
  H   H54       1.0  0.4546387244490073  0.6487219832362913  0.7721381416445426  1.0000
  H   H55       1.0  0.5453612744468871  0.1487219831871934  0.7278618585265573  1.0000
  H   H56       1.0  0.9546387250083365  0.8512780169110022  0.22786185846952398  1.0000
  H   H57       1.0  0.029914349695142155  0.5560668204067876  0.30753244300893584  1.0000
  H   H58       1.0  0.470085650864187  0.44393317969140805  0.8075324430659692  1.0000
  H   H59       1.0  0.5299143502544713  0.9439331797405057  0.6924675571051307  1.0000
  H   H60       1.0  0.9700856514235161  0.056066820357689784  0.19246755704809748  1.0000
  H   H61       1.0  0.7264778721691632  0.7380264957795376  0.28187344166307404  1.0000
  H   H62       1.0  0.7735221272860604  0.26197350431865807  0.7818734414318202  1.0000
  H   H63       1.0  0.2264778738325979  0.7619735043677559  0.7181265584509926  1.0000
  H   H64       1.0  0.27352212672673126  0.23802649573043977  0.2181265583939593  1.0000
  H   H65       1.0  0.45077552526536213  0.7137534245087546  0.22023479772972449  1.0000
  H   H66       1.0  0.04922447307120315  0.2862465755894411  0.7202347977867578  1.0000
  H   H67       1.0  0.9507755258246913  0.786246575638539  0.7797652023843421  1.0000
  H   H68       1.0  0.5492244736305323  0.21375342445965673  0.27976520232730884  1.0000
  C   C1        1.0  0.7950634521514899  0.3004673564454852  0.0748290442259161  1.0000
  C   C2        1.0  0.7049365473037338  0.6995326436527104  0.5748290442829495  1.0000
  C   C3        1.0  0.29506345159216074  0.19953264360361256  0.9251709558881505  1.0000
  C   C4        1.0  0.20493654674440454  0.8004673564945831  0.4251709558311172  1.0000
  C   C5        1.0  0.9407895635009531  0.20463826642844848  0.09716695356476673  1.0000
  C   C6        1.0  0.5592104359542704  0.7953617336697472  0.5971669536218001  1.0000
  C   C7        1.0  0.4407895651643879  0.29536173362064927  0.9028330462610129  1.0000
  C   C8        1.0  0.0592104353949413  0.7046382664775462  0.4028330462039796  1.0000
  C   C9        1.0  0.12909735916262743  0.23973135076476243  0.12622013748265154  1.0000
  C   C10       1.0  0.3709026413967017  0.7602686493334332  0.6262201372513978  1.0000
  C   C11       1.0  0.6290973574991927  0.26026864928433535  0.873779862631415  1.0000
  C   C12       1.0  0.8709026419560308  0.7397313508138603  0.3737798625743818  1.0000
  C   C13       1.0  0.17770061196253023  0.3711953847045123  0.13547530501568347  1.0000
  C   C14       1.0  0.3222993885967989  0.6288046153936834  0.6354753050727168  1.0000
  C   C15       1.0  0.6777006125218594  0.12880461534458554  0.8645246948100962  1.0000
  C   C16       1.0  0.8222993869333641  0.87119538475361  0.3645246950413498  1.0000
  C   C17       1.0  0.02937811235517749  0.46705869622406393  0.1132674384986636  1.0000
  C   C18       1.0  0.4706218859813878  0.5329413038741317  0.6132674382674099  1.0000
  C   C19       1.0  0.5293781129145066  0.0329413038250339  0.886732561615403  1.0000
  C   C20       1.0  0.970621886540717  0.9670586962731618  0.3867325615583697  1.0000
  C   C21       1.0  0.8436900728680389  0.4322752630174009  0.08391581234717345  1.0000
  C   C22       1.0  0.6563099265871847  0.5677247370807947  0.5839158124042068  1.0000
  C   C23       1.0  0.3436900745314736  0.06772473703169692  0.9160841877668933  1.0000
  C   C24       1.0  0.1563099260278556  0.932275262110003  0.4160841877098599  1.0000
  C   C25       1.0  0.5877841834084455  0.5171354241126532  0.2123877653339698  1.0000
  C   C26       1.0  0.912215816046778  0.48286457598554233  0.7123877651027161  1.0000
  C   C27       1.0  0.08778418507188016  0.9828645760346403  0.7876122347800968  1.0000
  C   C28       1.0  0.412215815487449  0.01713542406355544  0.2876122347230635  1.0000
  C   C29       1.0  0.7562691185324674  0.41461303173999586  0.22666296667449903  1.0000
  C   C30       1.0  0.7437308809227563  0.585386967401704  0.7266629667315324  1.0000
  C   C31       1.0  0.25626911797313817  0.08538696830910192  0.7733370331512806  1.0000
  C   C32       1.0  0.243730882586191  0.9146130317890938  0.27333703309424723  1.0000
  C   C33       1.0  0.9140979213553363  0.4301802285254539  0.2607819173901774  1.0000
  C   C34       1.0  0.5859020780998874  0.5698197715727417  0.7607819171589237  1.0000
  C   C35       1.0  0.41409792301877096  0.06981977152364387  0.7392180827238892  1.0000
  C   C36       1.0  0.08590207754055819  0.9301802285745517  0.2392180826668559  1.0000
  C   C37       1.0  0.905454784036443  0.5463533236321425  0.2807710977724863  1.0000
  C   C38       1.0  0.5945452154187807  0.4536466764660531  0.7807710975412326  1.0000
  C   C39       1.0  0.4054547834771138  0.953646676515151  0.7192289023415803  1.0000
  C   C40       1.0  0.09454521708221536  0.046353323583044684  0.21922890228454703  1.0000
  C   C41       1.0  0.7390662153222051  0.6480202530485913  0.26610634454053383  1.0000
  C   C42       1.0  0.7609337841330185  0.35197974704960433  0.7661063445975671  1.0000
  C   C43       1.0  0.23906621476287596  0.8519797470987022  0.7338936552852457  1.0000
  C   C44       1.0  0.2609337857964532  0.14802025299949348  0.23389365522821245  1.0000
  C   C45       1.0  0.5818814183231468  0.6347953133245505  0.23172080817342644  1.0000
  C   C46       1.0  0.9181185811320769  0.36520468677364504  0.7317208082304597  1.0000
  C   C47       1.0  0.08188141998658142  0.8652046868227429  0.7682791916523531  1.0000
  C   C48       1.0  0.41811858057274776  0.13479531327545277  0.2682791918836069  1.0000
  N   N1        1.0  0.6158500937767211  0.26865409006418484  0.04562830347227894  1.0000
  N   N2        1.0  0.8841499079012665  0.7313459100340107  0.5456283035293122  1.0000
  N   N3        1.0  0.11585009321739181  0.23134590998491295  0.9543716966417877  1.0000
  N   N4        1.0  0.3841499073419373  0.7686540901132827  0.4543716965847544  1.0000
  N   N5        1.0  0.35811484297262314  0.3900842040452666  0.1659923998282766  1.0000
  N   N6        1.0  0.14188515758670597  0.609915796052929  0.6659923998853099  1.0000
  N   N7        1.0  0.8581148435319523  0.10991579600383122  0.83400760028579  1.0000
  N   N8        1.0  0.6418851559232712  0.8900842040943645  0.3340076002287567  1.0000
  N   N9        1.0  0.4109138804468981  0.5032254794844102  0.17928127349438394  1.0000
  N   N10       1.0  0.08908612011243107  0.4967745206137854  0.6792812735514172  1.0000
  N   N11       1.0  0.9109138810062272  0.9967745206628832  0.8207187263313956  1.0000
  N   N12       1.0  0.5890861184489964  0.0032254794353123568  0.3207187262743623  1.0000
  O   O1        1.0  0.23213184940259468  0.7457126951734521  0.15163282523306526  1.0000
  O   O2        1.0  0.26786815115673446  0.2542873039682479  0.6516328250018115  1.0000
  O   O3        1.0  0.73213184773916  0.7542873040173458  0.8483671748810014  1.0000
  O   O4        1.0  0.7678681517160636  0.24571269512435426  0.34836717482396806  1.0000
  O   O5        1.0  0.7344717979512444  0.852920026353027  0.1574377204920626  1.0000
  O   O6        1.0  0.7655282015039792  0.14707997374516868  0.6574377202608088  1.0000
  O   O7        1.0  0.23447179739191526  0.6470799737942665  0.842562279622004  1.0000
  O   O8        1.0  0.2655282031674139  0.3529200263039291  0.34256227956497076  1.0000
  O   O9        1.0  0.3540321191828897  0.9379790180317041  0.11052662043650774  1.0000
  O   O10       1.0  0.14596788137643946  0.06202098206649143  0.610526620493541  1.0000
  O   O11       1.0  0.8540321197422189  0.5620209821155893  0.8894733796775589  1.0000
  O   O12       1.0  0.6459678819357686  0.4379790179826064  0.3894733796205256  1.0000
  O   O13       1.0  0.6025972975949576  0.7197185648749955  0.0980423567486266  1.0000
  O   O14       1.0  0.8974027018602659  0.2802814352232001  0.5980423568056599  1.0000
  O   O15       1.0  0.10259729703562853  0.7802814352722979  0.901957643077153  1.0000
  O   O16       1.0  0.3974027035237006  0.21971856482589772  0.4019576433084067  1.0000
  O   O17       1.0  0.5093436285776928  0.991443983617371  0.040098742511347416  1.0000
  O   O18       1.0  0.9906563731002946  0.00855601552432892  0.5400987425683808  1.0000
  O   O19       1.0  0.009343628018363642  0.5085560155734268  0.9599012573144322  1.0000
  O   O20       1.0  0.4906563725409655  0.4914439845247689  0.4599012575456859  1.0000
  O   O21       1.0  0.011818764506725223  0.028322791730248206  0.010879377550418717  1.0000
  O   O22       1.0  0.488181236052604  0.9716772083679475  0.510879377607452  1.0000
  O   O23       1.0  0.5118187628432904  0.47167720831884963  0.9891206222753608  1.0000
  O   O24       1.0  0.988181236611933  0.5283227917793459  0.4891206225066146  1.0000
  O   O25       1.0  0.886205484371131  0.8114175601003986  0.04136636395341285  1.0000
  O   O26       1.0  0.6137945150840926  0.18858243999779697  0.5413663640104461  1.0000
  O   O27       1.0  0.38620548381180186  0.6885824400468948  0.9586336361606537  1.0000
  O   O28       1.0  0.11379451674752726  0.31141756005130083  0.45863363610362046  1.0000
  O   O29       1.0  0.6681560888814664  0.8870696491738816  0.9765902851301956  1.0000
  O   O30       1.0  0.8318439127965211  0.11293035092431394  0.47659028507316237  1.0000
  O   O31       1.0  0.16815608832213721  0.6129303509734118  0.023409714983870927  1.0000
  O   O32       1.0  0.33184391223719195  0.3870696491247838  0.5234097150409042  1.0000
  P   P1        1.0  0.47868247467492475  0.8124488613968253  0.12958725364986387  1.0000
  P   P2        1.0  0.021317525884404397  0.18755113870137033  0.6295872537068972  1.0000
  P   P3        1.0  0.9786824752342539  0.6875511387504681  0.8704127461759158  1.0000
  P   P4        1.0  0.5213175242209697  0.31244886134772754  0.3704127464071695  1.0000
  P   P5        1.0  0.7649514387329965  0.9243248967821052  0.018251183184107223  1.0000
  P   P6        1.0  0.735048560722227  0.07567510235959483  0.5182511832411405  1.0000
  P   P7        1.0  0.2649514403964312  0.5756751024086926  0.9817488166416725  1.0000
  P   P8        1.0  0.23504856016289793  0.4243248967330073  0.4817488165846391  1.0000
