data_image0
_chemical_formula_structural       H24C56N2O18Br4
_chemical_formula_sum              "H24 C56 N2 O18 Br4"
_cell_length_a       7.435705251542741
_cell_length_b       9.62215626021531
_cell_length_c       17.47535763956062
_cell_angle_alpha    76.70857889872958
_cell_angle_beta     97.5024619547252
_cell_angle_gamma    85.09811703088474

_space_group_name_H-M_alt    "P 1"
_space_group_IT_number       1

loop_
  _space_group_symop_operation_xyz
  'x, y, z'

loop_
  _atom_site_type_symbol
  _atom_site_label
  _atom_site_symmetry_multiplicity
  _atom_site_fract_x
  _atom_site_fract_y
  _atom_site_fract_z
  _atom_site_occupancy
  H   H1        1.0  0.9065453050368396  0.38751888140032825  0.9572885367583247  1.0000
  H   H2        1.0  0.09345469625491602  0.6124811189628488  0.042711463581192655  1.0000
  H   H3        1.0  0.024507383828436268  0.13230194712061943  0.9736100094709836  1.0000
  H   H4        1.0  0.975492616116397  0.8676980532500735  0.026389990864355735  1.0000
  H   H5        1.0  0.13253522412115393  0.21934228865929567  0.7308519254419923  1.0000
  H   H6        1.0  0.867464775621318  0.7806577119753111  0.2691480742981929  1.0000
  H   H7        1.0  0.11614867509173779  0.46598554580685  0.6064729815891368  1.0000
  H   H8        1.0  0.8838513248530955  0.5340144545638431  0.39352701874620255  1.0000
  H   H9        1.0  0.9742763630472059  0.9225135679319937  0.5788134258338192  1.0000
  H   H10       1.0  0.025723636897627487  0.07748643243869931  0.42118657450152014  1.0000
  H   H11       1.0  0.8794142579741915  0.8802646242836211  0.7124176723858088  1.0000
  H   H12       1.0  0.1205857417682803  0.11973537635098565  0.28758232735437633  1.0000
  H   H13       1.0  0.5356093802629492  0.8012245456896222  0.029625935859681977  1.0000
  H   H14       1.0  0.46439061947952254  0.19877545494498458  0.9703740638805031  1.0000
  H   H15       1.0  0.4369355352721302  0.5329138735613591  0.3058026890258526  1.0000
  H   H16       1.0  0.5630644645780788  0.4670861260305522  0.6941973107134907  1.0000
  H   H17       1.0  0.5544071467077352  0.13630774698059855  0.363515901234868  1.0000
  H   H18       1.0  0.445592853237098  0.8636922533900946  0.6364840991004713  1.0000
  H   H19       1.0  0.9458307665433731  0.7623127889500878  0.8714615669022683  1.0000
  H   H20       1.0  0.05416923330683589  0.23768721064182338  0.12853843283707495  1.0000
  H   H21       1.0  0.8267792978568931  0.6210096560674961  0.9182448953697893  1.0000
  H   H22       1.0  0.17322070188557867  0.37899034456711056  0.08175510437039582  1.0000
  H   H23       1.0  0.7171512621219956  0.7516995446479293  0.8316611986670875  1.0000
  H   H24       1.0  0.28284873782283754  0.24830045572276369  0.16833880166825188  1.0000
  C   C1        1.0  0.9560781835605516  0.35279031363119434  0.9079836488545018  1.0000
  C   C2        1.0  0.043921816289657245  0.647209685960717  0.0920163508848414  1.0000
  C   C3        1.0  0.020455980798586716  0.20892754852086054  0.9166971733239881  1.0000
  C   C4        1.0  0.9795440191462466  0.7910724518498325  0.08330282701135121  1.0000
  C   C5        1.0  0.08340020778375558  0.16361899032484228  0.8528485459832857  1.0000
  C   C6        1.0  0.9165997921610778  0.8363810100458507  0.14715145435205362  1.0000
  C   C7        1.0  0.0830687150918165  0.25732567555243485  0.7791514346308662  1.0000
  C   C8        1.0  0.9169312847583925  0.7426743240394764  0.22084856510847695  1.0000
  C   C9        1.0  0.06509892842872696  0.554295108014086  0.6302273906985272  1.0000
  C   C10       1.0  0.934901071421482  0.4457048915778253  0.36977260904081616  1.0000
  C   C11       1.0  0.047696613328029366  0.696260757418759  0.5860913873189135  1.0000
  C   C12       1.0  0.9523033866168039  0.303739242951934  0.41390861301642584  1.0000
  C   C13       1.0  0.9820913167509201  0.8129493881822426  0.6149869847825192  1.0000
  C   C14       1.0  0.017908683301650432  0.18705061114575502  0.38501301555197814  1.0000
  C   C15       1.0  0.9289064686937325  0.7898012558617685  0.6900364810973121  1.0000
  C   C16       1.0  0.07109353104873926  0.21019874477283831  0.30996351864287297  1.0000
  C   C17       1.0  0.94616010331783  0.6479418932879666  0.7353434424026032  1.0000
  C   C18       1.0  0.053839896424641674  0.3520581073466403  0.2646565573375819  1.0000
  C   C19       1.0  0.014484711478652974  0.5297991658291574  0.7063076778563377  1.0000
  C   C20       1.0  0.985515288371556  0.470200833762754  0.2936923218830054  1.0000
  C   C21       1.0  0.02239181307269606  0.40266050491421945  0.7701722262721533  1.0000
  C   C22       1.0  0.9776081868721372  0.5973394954564735  0.22982777406318605  1.0000
  C   C23       1.0  0.9592115039131527  0.44947600032997  0.8349809179091976  1.0000
  C   C24       1.0  0.04078849582931902  0.5505240003046369  0.1650190818309876  1.0000
  C   C25       1.0  0.409724084432696  0.738029776699703  0.2169284493077792  1.0000
  C   C26       1.0  0.5902759155121373  0.2619702236709899  0.7830715510275601  1.0000
  C   C27       1.0  0.43454872679549156  0.811361796837675  0.14048302143336824  1.0000
  C   C28       1.0  0.5654512732570789  0.1886382024903228  0.8595169789011292  1.0000
  C   C29       1.0  0.5140793141170058  0.7436809391681646  0.08851317291456631  1.0000
  C   C30       1.0  0.485920685625466  0.25631906146644234  0.9114868268256188  1.0000
  C   C31       1.0  0.5645606522997295  0.5964327215547853  0.1188137083155354  1.0000
  C   C32       1.0  0.43543934775284093  0.4035672777732123  0.881186292018962  1.0000
  C   C33       1.0  0.5362414959767318  0.5226236459059567  0.1947108008675894  1.0000
  C   C34       1.0  0.46375850387347706  0.4773763536859547  0.8052891988717538  1.0000
  C   C35       1.0  0.4583641638422155  0.5905340696209198  0.24691149000200746  1.0000
  C   C36       1.0  0.5416358360079933  0.4094659299709915  0.7530885097373358  1.0000
  C   C37       1.0  0.3235688573294655  0.8441365185805885  0.2546368177997687  1.0000
  C   C38       1.0  0.6764311426153679  0.1558634817901044  0.7453631825355707  1.0000
  C   C39       1.0  0.3606823159035017  0.9637172932514287  0.1283597808741015  1.0000
  C   C40       1.0  0.6393176839467072  0.036282706340482716  0.8716402188652417  1.0000
  C   C41       1.0  0.6516943285548362  0.49032232173820156  0.08173594811277646  1.0000
  C   C42       1.0  0.34830567149773417  0.5096776775897959  0.9182640522217211  1.0000
  C   C43       1.0  0.5993485816204763  0.3687905349573709  0.2049539362267544  1.0000
  C   C44       1.0  0.40065141843209406  0.6312094643706267  0.795046064107743  1.0000
  C   C45       1.0  0.4604004261539231  0.14631056246934473  0.47569740201560295  1.0000
  C   C46       1.0  0.5395995738986472  0.8536894368586531  0.5243025983188945  1.0000
  C   C47       1.0  0.43085699136594685  0.0703800141462629  0.5507737060038972  1.0000
  C   C48       1.0  0.5691430086866237  0.9296199851817344  0.4492262943306003  1.0000
  C   C49       1.0  0.5306910863111943  0.07832040883970483  0.4218360000147671  1.0000
  C   C50       1.0  0.4693089134312774  0.9216795917949021  0.578163999725418  1.0000
  C   C51       1.0  0.4063344405873828  0.30111801297036056  0.46854415784574843  1.0000
  C   C52       1.0  0.593665559155089  0.6988819876642463  0.5314558418944367  1.0000
  C   C53       1.0  0.35738757958184303  0.17601630458908457  0.5915047093005954  1.0000
  C   C54       1.0  0.6426124201606287  0.8239836960455221  0.4084952904395898  1.0000
  C   C55       1.0  0.8469633322357164  0.687591946249126  0.8611571600085233  1.0000
  C   C56       1.0  0.15303666761449256  0.31240805334278526  0.13884283973081998  1.0000
  N   N1        1.0  0.9112286708030839  0.5970844295011448  0.8121727832251258  1.0000
  N   N2        1.0  0.08877132914174936  0.40291557086954805  0.18782721711021358  1.0000
  O   O1        1.0  0.300935234318137  0.978633777006031  0.19956366790033747  1.0000
  O   O2        1.0  0.6990647654243349  0.02136622362857563  0.8004363318398476  1.0000
  O   O3        1.0  0.2755783437305641  0.8316795566881784  0.31897347505717116  1.0000
  O   O4        1.0  0.7244216573588302  0.1683204439389124  0.681026524687192  1.0000
  O   O5        1.0  0.3430113701247111  0.06453059485281737  0.07107728768073684  1.0000
  O   O6        1.0  0.6569886298201222  0.9354694055178755  0.9289227126546026  1.0000
  O   O7        1.0  0.6703863163249989  0.35538199110116503  0.13542978468380162  1.0000
  O   O8        1.0  0.32961368372757155  0.6446180082268326  0.8645702156506959  1.0000
  O   O9        1.0  0.702215258162642  0.5036229886458438  0.017724383527892316  1.0000
  O   O10       1.0  0.2977847415798298  0.496377011988763  0.9822756162122928  1.0000
  O   O11       1.0  0.5934273441417766  0.2640597384435593  0.25744550220551815  1.0000
  O   O12       1.0  0.4065726556006952  0.7359402621910476  0.742554497534667  1.0000
  O   O13       1.0  0.34629863227443103  0.31294695212618545  0.5405193436982751  1.0000
  O   O14       1.0  0.653701367575778  0.6870530474657259  0.4594806560410681  1.0000
  O   O15       1.0  0.4065408770995001  0.4059990697775225  0.41539489769724985  1.0000
  O   O16       1.0  0.5934591228453332  0.5940009305931705  0.5846051026380895  1.0000
  O   O17       1.0  0.3123392621372704  0.1588527678843786  0.6567482419583561  1.0000
  O   O18       1.0  0.6876607377129385  0.8411472317075326  0.3432517577809871  1.0000
  Br  Br1       1.0  0.11425068972373438  0.7359579768679024  0.4819757192215258  1.0000
  Br  Br2       1.0  0.8857493115680215  0.26404202349527456  0.5180242811179917  1.0000
  Br  Br3       1.0  0.1790812152482154  0.9671874508134959  0.8679178226022399  1.0000
  Br  Br4       1.0  0.8209187848043551  0.032812548514501556  0.13208217773225758  1.0000
