data_image0
_chemical_formula_structural       H16C32N4F6I6
_chemical_formula_sum              "H16 C32 N4 F6 I6"
_cell_length_a       4.035137136116824
_cell_length_b       9.02548832889219
_cell_length_c       23.855913534632936
_cell_angle_alpha    90.0
_cell_angle_beta     91.52008020823054
_cell_angle_gamma    90.0

_space_group_name_H-M_alt    "P 1"
_space_group_IT_number       1

loop_
  _space_group_symop_operation_xyz
  'x, y, z'

loop_
  _atom_site_type_symbol
  _atom_site_label
  _atom_site_symmetry_multiplicity
  _atom_site_fract_x
  _atom_site_fract_y
  _atom_site_fract_z
  _atom_site_occupancy
  H   H1        1.0  0.5682968623461961  0.46262951630369076  0.09931417807055949  1.0000
  H   H2        1.0  0.06829686361128123  0.5373704838190517  0.599314177881272  1.0000
  H   H3        1.0  0.3408426607322329  0.24284694745918847  0.24585137073676316  1.0000
  H   H4        1.0  0.8408426598843993  0.7571530515555808  0.7458513707679726  1.0000
  H   H5        1.0  0.727450663114373  0.2300210818902937  0.05256384850610119  1.0000
  H   H6        1.0  0.2274506643794582  0.7699789182324488  0.5525638483168136  1.0000
  H   H7        1.0  0.493716400839878  0.9989420695541067  0.2057135373660549  1.0000
  H   H8        1.0  0.9937163999920443  0.0010579305686357237  0.7057135373972643  1.0000
  H   H9        1.0  0.5181122293900612  0.003978362022258276  0.015897371962956913  1.0000
  H   H10       1.0  0.01811222817731547  0.9960216381004842  0.5158973717759783  1.0000
  H   H11       1.0  0.932298979577999  0.8509745401158497  0.17498573135315407  1.0000
  H   H12       1.0  0.43229897844466275  0.14902546000689273  0.6749857315855  1.0000
  H   H13       1.0  0.6930572984973082  0.7639439428366427  0.9749304338357397  1.0000
  H   H14       1.0  0.19305729934514188  0.23605605728609982  0.4749304338045304  1.0000
  H   H15       1.0  0.08759744976084892  0.6190880599904153  0.12738948380870432  1.0000
  H   H16       1.0  0.5875974489130152  0.38091194013232726  0.6273894838399137  1.0000
  C   C1        1.0  0.03856912092446764  0.6911139356340649  0.32006976830977857  1.0000
  C   C2        1.0  0.5385691200766339  0.3088860644886776  0.8200697683409878  1.0000
  C   C3        1.0  0.9750192070332453  0.842762541241203  0.3210504500939985  1.0000
  C   C4        1.0  0.47501920589990904  0.15723745888153948  0.8210504503263444  1.0000
  C   C5        1.0  0.8204856125135873  0.9124336977576928  0.3657489237463386  1.0000
  C   C6        1.0  0.3204856137786725  0.08756630236504964  0.865748923557051  1.0000
  C   C7        1.0  0.7275075351648058  0.8232268758483874  0.41061296565421745  1.0000
  C   C8        1.0  0.22750753642989102  0.17677312427435504  0.9106129654649299  1.0000
  C   C9        1.0  0.7824830983598897  0.6708983524599194  0.4122826623180399  1.0000
  C   C10       1.0  0.28248309722655335  0.3291016476628232  0.9122826625503857  1.0000
  C   C11       1.0  0.9393909800997572  0.6095044887920448  0.36637410970588935  1.0000
  C   C12       1.0  0.4393909813648424  0.39049551133069776  0.8663741095166018  1.0000
  C   C13       1.0  0.552890278358893  0.3576437919338822  0.1217103818629166  1.0000
  C   C14       1.0  0.052890279623978215  0.6423562081888604  0.621710381673629  1.0000
  C   C15       1.0  0.4292870009112108  0.2351896986232706  0.20307569542105533  1.0000
  C   C16       1.0  0.9292870000633772  0.7648103003914986  0.7030756954522647  1.0000
  C   C17       1.0  0.6402705805104703  0.22618999056980396  0.09537250903394939  1.0000
  C   C18       1.0  0.14027057929772457  0.7738100095529384  0.5953725088469708  1.0000
  C   C19       1.0  0.515834063570994  0.09893936787236488  0.18053854271325195  1.0000
  C   C20       1.0  0.01583406235824833  0.9010606322503777  0.6805385425262733  1.0000
  C   C21       1.0  0.6236782936462761  0.09252815466246397  0.12515725789559784  1.0000
  C   C22       1.0  0.12367829491136124  0.9074718454602785  0.6251572577063103  1.0000
  C   C23       1.0  0.7155042699400016  0.9504566343007975  0.09919760442974652  1.0000
  C   C24       1.0  0.21550426872725592  0.049543365821944914  0.5991976042427679  1.0000
  C   C25       1.0  0.6488883952468769  0.9231208579960175  0.042128692826084155  1.0000
  C   C26       1.0  0.14888839403413123  0.07687914212672498  0.5421286926391057  1.0000
  C   C27       1.0  0.8726738299737851  0.8377234787170834  0.1304955834951512  1.0000
  C   C28       1.0  0.3726738313182795  0.16227652140565915  0.630495583725188  1.0000
  C   C29       1.0  0.7434297728720181  0.7884891776125644  0.01914588681486595  1.0000
  C   C30       1.0  0.24342977173868166  0.21151082251017814  0.5191458870472119  1.0000
  C   C31       1.0  0.9614589042752137  0.7071544449920522  0.1038235606420708  1.0000
  C   C32       1.0  0.4614589030624682  0.2928455551306904  0.6038235604550922  1.0000
  N   N1        1.0  0.4480210489206784  0.3632505844038262  0.17458789195382712  1.0000
  N   N2        1.0  0.9480210479934353  0.6367494157189163  0.674587891565712  1.0000
  N   N3        1.0  0.89885089946695  0.6820895851466494  0.049107630832079176  1.0000
  N   N4        1.0  0.3988509007320351  0.31791041497609296  0.5491076306427916  1.0000
  F   F1        1.0  0.575256741056099  0.8883558238431771  0.45452455954043974  1.0000
  F   F2        1.0  0.07525673984335335  0.11164417627956542  0.9545245593534611  1.0000
  F   F3        1.0  0.06394280256957095  0.9266677397639017  0.2764794945071982  1.0000
  F   F4        1.0  0.5639428041995681  0.07333226035884069  0.7764794945360984  1.0000
  F   F5        1.0  0.9951338498645159  0.4609286831254062  0.3661241343863612  1.0000
  F   F6        1.0  0.4951338512090106  0.5390713169973362  0.866124134616398  1.0000
  I   I1        1.0  0.24407429767968344  0.578599957110684  0.25152245205778934  1.0000
  I   I2        1.0  0.7440742968318498  0.42140004301205847  0.7515224520889988  1.0000
  I   I3        1.0  0.6203867376967828  0.5330346187030637  0.4780006966393275  1.0000
  I   I4        1.0  0.12038673904127728  0.46696538141967875  0.9780006968693643  1.0000
  I   I5        1.0  0.7329401354818498  0.1402430975339107  0.3656025899012425  1.0000
  I   I6        1.0  0.23294013674693498  0.8597569025888319  0.865602589711955  1.0000
