data_image0
_chemical_formula_structural       H20C36N4F6I6
_chemical_formula_sum              "H20 C36 N4 F6 I6"
_cell_length_a       4.695645256572636
_cell_length_b       9.029627495773122
_cell_length_c       22.53817092960959
_cell_angle_alpha    94.60758007601157
_cell_angle_beta     93.5610795154975
_cell_angle_gamma    92.18880350881452

_space_group_name_H-M_alt    "P 1"
_space_group_IT_number       1

loop_
  _space_group_symop_operation_xyz
  'x, y, z'

loop_
  _atom_site_type_symbol
  _atom_site_label
  _atom_site_symmetry_multiplicity
  _atom_site_fract_x
  _atom_site_fract_y
  _atom_site_fract_z
  _atom_site_occupancy
  H   H1        1.0  0.7738650056224875  0.42790279180797125  0.4858479259940729  1.0000
  H   H2        1.0  0.2261349956608127  0.5720972080426542  0.5141520742013288  1.0000
  H   H3        1.0  0.7005450910152498  0.240318302218978  0.6462106782637358  1.0000
  H   H4        1.0  0.2994549102680505  0.7596816976316472  0.353789321931666  1.0000
  H   H5        1.0  0.3786028237951802  0.26456746527571834  0.43629792495314546  1.0000
  H   H6        1.0  0.6213971753581702  0.735432534575815  0.5637020752409335  1.0000
  H   H7        1.0  0.3093511350341271  0.06656225348163418  0.6039537852300372  1.0000
  H   H8        1.0  0.6906488662491731  0.9334377463689911  0.39604621496536463  1.0000
  H   H9        1.0  0.010562305400262203  0.07525224340545149  0.44104927384946063  1.0000
  H   H10       1.0  0.9894376937530881  0.9247477564460818  0.5589507263446183  1.0000
  H   H11       1.0  0.747154679979686  0.5826715046277676  0.9890901139210371  1.0000
  H   H12       1.0  0.25284531904027996  0.4173284951323936  0.010909885826957375  1.0000
  H   H13       1.0  0.6678684457560756  0.830538917272394  0.14953170023193096  1.0000
  H   H14       1.0  0.33213155334765854  0.16946108359611106  0.850468299516406  1.0000
  H   H15       1.0  0.36365031765144135  0.7167529755514876  0.9380950157292913  1.0000
  H   H16       1.0  0.636349681501909  0.2832470243000457  0.06190498446478764  1.0000
  H   H17       1.0  0.2911948107580868  0.9789511026725395  0.10541258420045595  1.0000
  H   H18       1.0  0.7088051882618793  0.021048897087621813  0.8945874155475387  1.0000
  H   H19       1.0  0.008884870286321553  0.9001006485248202  0.9413896358658719  1.0000
  H   H20       1.0  0.9911151309969785  0.09989935132580513  0.05861036432952985  1.0000
  C   C1        1.0  0.5791611429470607  0.3707393277616398  0.28929033851869473  1.0000
  C   C2        1.0  0.42083885629005796  0.6292606731982374  0.7107096616757266  1.0000
  C   C3        1.0  0.44539854060594386  0.45196973438459076  0.24622342262678665  1.0000
  C   C4        1.0  0.5546014586311747  0.5480302665752864  0.7537765775676347  1.0000
  C   C5        1.0  0.2394581992368501  0.3908381674865484  0.20297344135668274  1.0000
  C   C6        1.0  0.760541799783116  0.609161832273613  0.797026558391312  1.0000
  C   C7        1.0  0.16512590164747024  0.24057122925071514  0.2048280085028438  1.0000
  C   C8        1.0  0.8348740995024457  0.7594287705085381  0.7951719912464736  1.0000
  C   C9        1.0  0.2885167152998607  0.15240652357791326  0.24681541657261427  1.0000
  C   C10       1.0  0.7114832838534896  0.8475934762736201  0.7531845836214647  1.0000
  C   C11       1.0  0.49536706049551743  0.22092156695750986  0.2884313296552123  1.0000
  C   C12       1.0  0.5046329385244486  0.7790784328026514  0.7115686700927822  1.0000
  C   C13       1.0  0.6648475103762457  0.3467563435860531  0.51081122699932  1.0000
  C   C14       1.0  0.3351524907736703  0.6532436561732002  0.4891887727499974  1.0000
  C   C15       1.0  0.6246871059669344  0.24164111630100518  0.5995270058958062  1.0000
  C   C16       1.0  0.3753128953163656  0.7583588835496202  0.4004729942995956  1.0000
  C   C17       1.0  0.44343681741211594  0.25437858564440485  0.48306762816927334  1.0000
  C   C18       1.0  0.5565631838711841  0.7456214142062204  0.5169323720261283  1.0000
  C   C19       1.0  0.40456894961291345  0.14400011363086423  0.5755151918832111  1.0000
  C   C20       1.0  0.5954310494070526  0.855999886129297  0.42448480786478343  1.0000
  C   C21       1.0  0.3048298594900268  0.14973374570523684  0.5156276250459988  1.0000
  C   C22       1.0  0.6951701418770416  0.8502662552537322  0.4843723751497454  1.0000
  C   C23       1.0  0.07105639708846345  0.05408947469037396  0.48709178217283483  1.0000
  C   C24       1.0  0.9289436040614525  0.9459105250688793  0.5129082175764824  1.0000
  C   C25       1.0  0.6395463799917542  0.6709456715332404  0.013598718922099896  1.0000
  C   C26       1.0  0.36045361916159624  0.32905432831829307  0.986401281271979  1.0000
  C   C27       1.0  0.5975702521536478  0.8097862674560772  0.10242371354297335  1.0000
  C   C28       1.0  0.4024297489962681  0.19021373230317615  0.897576286206344  1.0000
  C   C29       1.0  0.42584947884684116  0.747047731669938  0.9850617569714596  1.0000
  C   C30       1.0  0.5741505203065093  0.2529522681815954  0.014938243222619317  1.0000
  C   C31       1.0  0.3859706997159218  0.8929445293006498  0.07737822565576363  1.0000
  C   C32       1.0  0.6140292993040443  0.10705547045951165  0.922621774092231  1.0000
  C   C33       1.0  0.29127910821379205  0.8617562272892391  0.017094661960086383  1.0000
  C   C34       1.0  0.708720890806174  0.13824377247092232  0.9829053377879082  1.0000
  C   C35       1.0  0.06707759575126458  0.941493326279419  0.9874973258446746  1.0000
  C   C36       1.0  0.9329224034020857  0.05850667357211442  0.012502674349404238  1.0000
  N   N1        1.0  0.7534401062582998  0.3426580773749583  0.56835417256739  1.0000
  N   N2        1.0  0.24655989276166623  0.657341922385203  0.4316458271806045  1.0000
  N   N3        1.0  0.7237357114205967  0.7000158944967131  0.07147425510743814  1.0000
  N   N4        1.0  0.2762642898627035  0.2999841053539122  0.9285257450879635  1.0000
  F   F1        1.0  0.5134849765913556  0.5999757638700268  0.24767346801373957  1.0000
  F   F2        1.0  0.48651502469194446  0.40002423598059844  0.7523265321816621  1.0000
  F   F3        1.0  0.9609395252566888  0.17617038035497984  0.16414602519144103  1.0000
  F   F4        1.0  0.03906047589322713  0.8238296194042736  0.8358539745578764  1.0000
  F   F5        1.0  0.6166107174716313  0.13866069385030935  0.33046720549200254  1.0000
  F   F6        1.0  0.3833892815483348  0.861339305909852  0.669532794255992  1.0000
  I   I1        1.0  0.8755417418748711  0.4782027375303478  0.3554205319835448  1.0000
  I   I2        1.0  0.12445825714509497  0.5217972622298136  0.6445794677644499  1.0000
  I   I3        1.0  0.032290359286870775  0.5239819354267009  0.14092865791227707  1.0000
  I   I4        1.0  0.9677096398664796  0.4760180644248325  0.8590713422818018  1.0000
  I   I5        1.0  0.1706774656533167  0.9264696591285546  0.24566336861750152  1.0000
  I   I6        1.0  0.8293225335000336  0.07353034072297893  0.7543366315765774  1.0000
