data_image0
_chemical_formula_structural       H80C120N16Cl16I8
_chemical_formula_sum              "H80 C120 N16 Cl16 I8"
_cell_length_a       10.07237230542101
_cell_length_b       30.954646861695462
_cell_length_c       9.267961081798227
_cell_angle_alpha    90.0
_cell_angle_beta     91.21598231203076
_cell_angle_gamma    90.0

_space_group_name_H-M_alt    "P 1"
_space_group_IT_number       1

loop_
  _space_group_symop_operation_xyz
  'x, y, z'

loop_
  _atom_site_type_symbol
  _atom_site_label
  _atom_site_symmetry_multiplicity
  _atom_site_fract_x
  _atom_site_fract_y
  _atom_site_fract_z
  _atom_site_occupancy
  H   H1        1.0  0.786950759064332  0.6620778370229313  0.7824856738759904  1.0000
  H   H2        1.0  0.2130492403716001  0.1620778370503175  0.71751432547234  1.0000
  H   H3        1.0  0.2130492402792469  0.3379221629222962  0.21751432572871982  1.0000
  H   H4        1.0  0.7869507589719789  0.8379221628949101  0.2824856741323704  1.0000
  H   H5        1.0  0.8095685637821736  0.6756185238824112  0.04496926247809887  1.0000
  H   H6        1.0  0.19043143646190616  0.1756185239097974  0.45503073738509286  1.0000
  H   H7        1.0  0.1904314365542593  0.32438147606281637  0.955030737128713  1.0000
  H   H8        1.0  0.8095685638745268  0.8243814763584834  0.5449692622217189  1.0000
  H   H9        1.0  0.4827328359736266  0.5872086449964562  0.10401446048321705  1.0000
  H   H10       1.0  0.5172671642895933  0.0872086450238425  0.3959855404592017  1.0000
  H   H11       1.0  0.5172671643819465  0.4127913549487712  0.8959855402028218  1.0000
  H   H12       1.0  0.4827328360659797  0.912791354921385  0.6040144602268372  1.0000
  H   H13       1.0  0.472415430242198  0.5778111809808042  0.8384271217126128  1.0000
  H   H14       1.0  0.5275845691937341  0.07781118100819046  0.6615728776357176  1.0000
  H   H15       1.0  0.5275845700942349  0.4221888189644233  0.16157287789419908  1.0000
  H   H16       1.0  0.4724154301498449  0.9221888192600903  0.3384271219689927  1.0000
  H   H17       1.0  0.7207334732360715  0.6186482551573552  0.3118190340915931  1.0000
  H   H18       1.0  0.27926652702714844  0.11864825518474147  0.18818096685082564  1.0000
  H   H19       1.0  0.27926652612664765  0.3813517447878723  0.6881809665923442  1.0000
  H   H20       1.0  0.7207334733284246  0.881351744760486  0.8118190338352133  1.0000
  H   H21       1.0  0.6280086361266864  0.7097093702330388  0.22936070687080262  1.0000
  H   H22       1.0  0.3719913641173933  0.2097093702604251  0.2706392929923892  1.0000
  H   H23       1.0  0.37199136420974643  0.2902906300352419  0.7706392927360093  1.0000
  H   H24       1.0  0.6280086362190395  0.7902906300078557  0.7293607066144228  1.0000
  H   H25       1.0  0.6409292211962796  0.6636468770516225  0.5236500619094584  1.0000
  H   H26       1.0  0.35907077823965244  0.16364687707900868  0.976349937438872  1.0000
  H   H27       1.0  0.3590707781472993  0.336353122893605  0.476349937695252  1.0000
  H   H28       1.0  0.6409292220967805  0.836353123189272  0.02365006216793982  1.0000
  H   H29       1.0  0.4423041767027673  0.6578987943551864  0.2693549017873645  1.0000
  H   H30       1.0  0.5576958235413124  0.15789879438257265  0.2306450980758273  1.0000
  H   H31       1.0  0.5576958236336655  0.3421012055900411  0.7306450978194474  1.0000
  H   H32       1.0  0.44230417582140674  0.8421012055626549  0.76935490260811  1.0000
  H   H33       1.0  0.7951443956754325  0.7600397402405185  0.19102020295234068  1.0000
  H   H34       1.0  0.20485560456864726  0.26003974026790466  0.3089797969108511  1.0000
  H   H35       1.0  0.2048556046610004  0.23996025970470905  0.8089797966544712  1.0000
  H   H36       1.0  0.7951443957677855  0.7399602596773227  0.6910202026959608  1.0000
  H   H37       1.0  0.025180622166894595  0.7865338040773391  0.2403904330525993  1.0000
  H   H38       1.0  0.9748193780771851  0.28653380410472534  0.2596095668105925  1.0000
  H   H39       1.0  0.9748193781695382  0.21346619586788837  0.7596095665542126  1.0000
  H   H40       1.0  0.025180622259247745  0.7134661958405021  0.7403904327962194  1.0000
  H   H41       1.0  0.11131165191861768  0.6825993626871788  0.5057537792139255  1.0000
  H   H42       1.0  0.8886883475364545  0.18259936271456495  0.9942462212136318  1.0000
  H   H43       1.0  0.8886883484369554  0.3174006372580488  0.4942462214721132  1.0000
  H   H44       1.0  0.1113116518071243  0.8174006372306626  0.0057537783910785205  1.0000
  H   H45       1.0  0.8820302612040868  0.6535415044593387  0.47913230688569747  1.0000
  H   H46       1.0  0.11796973903999296  0.15354150448672493  0.020867692977494218  1.0000
  H   H47       1.0  0.11796973915148633  0.3464584954858888  0.5208676938003414  1.0000
  H   H48       1.0  0.8820302612964399  0.8464584954585026  0.9791323066293177  1.0000
  H   H49       1.0  0.5853036228642055  0.7656880938069859  0.35735437526596614  1.0000
  H   H50       1.0  0.4146963773798742  0.26568809383437225  0.14264562459722566  1.0000
  H   H51       1.0  0.4146963774722273  0.23431190613824152  0.6426456243408458  1.0000
  H   H52       1.0  0.5853036229756988  0.7343119061108553  0.8573543760888133  1.0000
  H   H53       1.0  0.4328436776593187  0.8220188869764511  0.4443589758281813  1.0000
  H   H54       1.0  0.5671563225847609  0.3220188866807841  0.05564102403501049  1.0000
  H   H55       1.0  0.5671563226962544  0.17798111329182967  0.5556410248578576  1.0000
  H   H56       1.0  0.4328436777516719  0.6779811132644434  0.9443589755718015  1.0000
  H   H57       1.0  0.2524025412339386  0.7375202521935526  0.7238453327516311  1.0000
  H   H58       1.0  0.7475974582211337  0.23752025222093884  0.7761546676759263  1.0000
  H   H59       1.0  0.7475974591024942  0.2624797477516749  0.2761546668551808  1.0000
  H   H60       1.0  0.25240254114158545  0.7624797477242886  0.22384533300801096  1.0000
  H   H61       1.0  0.39316913510849266  0.6757171895210032  0.642243917505816  1.0000
  H   H62       1.0  0.6068308643465797  0.1757171895483894  0.8577560829217414  1.0000
  H   H63       1.0  0.6068308642542265  0.3242828104242243  0.35775608317812135  1.0000
  H   H64       1.0  0.3931691349969993  0.824282810396838  0.14224391668296885  1.0000
  H   H65       1.0  0.6533859644005949  0.5844951050754454  0.5134842047983578  1.0000
  H   H66       1.0  0.3466140350353371  0.08449510510283177  0.9865157945499727  1.0000
  H   H67       1.0  0.346614034942984  0.41550489519283523  0.48651579480635265  1.0000
  H   H68       1.0  0.6533859643082418  0.915504895165449  0.013484205054737613  1.0000
  H   H69       1.0  0.5527558380290712  0.5248181819868512  0.6500770031432435  1.0000
  H   H70       1.0  0.4472441624188549  0.02481818201423738  0.8499229972864156  1.0000
  H   H71       1.0  0.4472441623265018  0.47518181828142964  0.3499229975427955  1.0000
  H   H72       1.0  0.552755837917578  0.9751818182540434  0.15007700232039628  1.0000
  H   H73       1.0  0.17708457939696987  0.5516724754218262  0.4831086950329166  1.0000
  H   H74       1.0  0.8229154208471099  0.05167247544921245  0.016891304830275223  1.0000
  H   H75       1.0  0.822915420939463  0.4483275245234013  0.5168913045738953  1.0000
  H   H76       1.0  0.17708457948932302  0.9483275248190683  0.9831086947765366  1.0000
  H   H77       1.0  0.26215304637270187  0.6134724413056954  0.3375180821165366  1.0000
  H   H78       1.0  0.7378469538713779  0.1134724413330817  0.16248191774665516  1.0000
  H   H79       1.0  0.737846953963731  0.38652755863953203  0.6624819174902752  1.0000
  H   H80       1.0  0.2621530454913413  0.8865275586121458  0.8375180829372822  1.0000
  C   C1        1.0  0.8662331547115742  0.5417809695885327  0.05759937862949788  1.0000
  C   C2        1.0  0.1337668445396515  0.04178096961591898  0.44240062123159235  1.0000
  C   C3        1.0  0.13376684465114488  0.45821903035669476  0.9424006220544394  1.0000
  C   C4        1.0  0.8662331548039274  0.9582190303293086  0.557599378373118  1.0000
  C   C5        1.0  0.9586439692459503  0.574163063122941  0.09428145816521245  1.0000
  C   C6        1.0  0.041356030998129366  0.07416306315032727  0.40571854169797933  1.0000
  C   C7        1.0  0.04135603110962273  0.4258369368222865  0.9057185425208263  1.0000
  C   C8        1.0  0.9586439693383034  0.9258369367949002  0.5942814579088326  1.0000
  C   C9        1.0  0.025800052890155255  0.5979126149522566  0.9893077393361871  1.0000
  C   C10       1.0  0.9741999475386306  0.09791261497964293  0.5106922600142448  1.0000
  C   C11       1.0  0.9741999474462776  0.4020873849929708  0.010692260270624837  1.0000
  C   C12       1.0  0.02580005279780211  0.9020873849655846  0.4893077395925669  1.0000
  C   C13       1.0  0.00176464841704744  0.5876245331200559  0.8435863025918048  1.0000
  C   C14       1.0  0.9982353520117386  0.08762453314744215  0.6564136967586273  1.0000
  C   C15       1.0  0.9982353519193854  0.41237546682517157  0.15641369701500707  1.0000
  C   C16       1.0  0.0017646483246942935  0.9123754667977854  0.3435863028481847  1.0000
  C   C17       1.0  0.9129501086329719  0.5544755337279886  0.8031847732622354  1.0000
  C   C18       1.0  0.08704989082210045  0.054475533755374866  0.6968152271653221  1.0000
  C   C19       1.0  0.0870498907297473  0.44552446621723885  0.19681522742170196  1.0000
  C   C20       1.0  0.9129501085214785  0.9455244661898526  0.3031847724393883  1.0000
  C   C21       1.0  0.845141888807117  0.5319202071200159  0.911020165759515  1.0000
  C   C22       1.0  0.15485811162166896  0.03192020714740211  0.588979833590917  1.0000
  C   C23       1.0  0.15485811152931583  0.4680797928252116  0.08897983384729682  1.0000
  C   C24       1.0  0.8451418887147639  0.9680797927978254  0.41102016601589497  1.0000
  C   C25       1.0  0.7203394447245923  0.645855814131067  0.856812389206049  1.0000
  C   C26       1.0  0.27966055471133966  0.1458558141584532  0.6431876101422815  1.0000
  C   C27       1.0  0.2796605556118404  0.3541441858141605  0.14318761040076305  1.0000
  C   C28       1.0  0.7203394446322393  0.8541441857867743  0.35681238946242866  1.0000
  C   C29       1.0  0.7335435520693229  0.653341746729017  0.004554161357829852  1.0000
  C   C30       1.0  0.26645644718190287  0.1533417467564033  0.4954458385032603  1.0000
  C   C31       1.0  0.2664564472933962  0.34665825321621047  0.9954458393261074  1.0000
  C   C32       1.0  0.7335435521616761  0.8466582531888242  0.5045541611014499  1.0000
  C   C33       1.0  0.6472202315541314  0.6324145669458224  0.0981493365912533  1.0000
  C   C34       1.0  0.3527797686899483  0.13241456697320875  0.40185066327193847  1.0000
  C   C35       1.0  0.35277976880144163  0.367585432999405  0.9018506640947855  1.0000
  C   C36       1.0  0.6472202316464846  0.8675854329720187  0.5981493363348734  1.0000
  C   C37       1.0  0.5532572398747001  0.6042161350948642  0.0368681068851489  1.0000
  C   C38       1.0  0.4467427593765258  0.10421613512225045  0.4631318929759413  1.0000
  C   C39       1.0  0.4467427594688789  0.39578386485036327  0.9631318927195615  1.0000
  C   C40       1.0  0.5532572399670532  0.895783864822977  0.536868106628769  1.0000
  C   C41       1.0  0.5473146416555499  0.5990932612753528  0.8874853007221529  1.0000
  C   C42       1.0  0.4526853587923764  0.09909326130273904  0.6125146997075063  1.0000
  C   C43       1.0  0.452685358680883  0.4009067386698747  0.11251469888465908  1.0000
  C   C44       1.0  0.5473146415631966  0.9009067386424885  0.38748530097853273  1.0000
  C   C45       1.0  0.6518794067467382  0.6411890521212972  0.25664996810868007  1.0000
  C   C46       1.0  0.3481205934973415  0.1411890521486834  0.24335003175451167  1.0000
  C   C47       1.0  0.34812059358969466  0.35881094782393036  0.7433500314981318  1.0000
  C   C48       1.0  0.6518794068390913  0.8588109481195974  0.7566499678523002  1.0000
  C   C49       1.0  0.6797813362532983  0.688330275102126  0.30688466574650225  1.0000
  C   C50       1.0  0.32021866399078147  0.18833027512951228  0.19311533411668952  1.0000
  C   C51       1.0  0.3202186640831346  0.31166972516615477  0.6931153338603097  1.0000
  C   C52       1.0  0.6797813363456514  0.8116697251387684  0.8068846654901224  1.0000
  C   C53       1.0  0.5861769213997037  0.6795569529184361  0.43410764908059307  1.0000
  C   C54       1.0  0.41382307884437597  0.17955695294582233  0.06589235078259867  1.0000
  C   C55       1.0  0.4138230789367292  0.3204430470267914  0.5658923505262188  1.0000
  C   C56       1.0  0.5861769205183431  0.8204430469994052  0.9341076499013387  1.0000
  C   C57       1.0  0.519331675526034  0.6431675256691826  0.339466700908507  1.0000
  C   C58       1.0  0.48066832471804577  0.14316752569656885  0.16053329895468477  1.0000
  C   C59       1.0  0.4806683248103989  0.35683247427604486  0.6605332986983048  1.0000
  C   C60       1.0  0.5193316756375272  0.8568324742486586  0.8394667017313541  1.0000
  C   C61       1.0  0.8176080437423593  0.7046078285903392  0.33274680245718535  1.0000
  C   C62       1.0  0.1823919565017205  0.2046078286177255  0.16725319740600644  1.0000
  C   C63       1.0  0.18239195659407367  0.2953921716779415  0.6672531971496266  1.0000
  C   C64       1.0  0.8176080428609988  0.7953921716505553  0.8327468032779308  1.0000
  C   C65       1.0  0.861253795886404  0.7422737149178222  0.26471582533542765  1.0000
  C   C66       1.0  0.1387462043576757  0.2422737149452085  0.23528417452776412  1.0000
  C   C67       1.0  0.1387462044500289  0.2577262853504585  0.7352841742713843  1.0000
  C   C68       1.0  0.8612537959787572  0.7577262853230723  0.7647158250790478  1.0000
  C   C69       1.0  0.9905800295626674  0.7567416002082271  0.2904783470006377  1.0000
  C   C70       1.0  0.009419969688558356  0.2567416002356134  0.20952165286045255  1.0000
  C   C71       1.0  0.009419969780911504  0.2432583997370004  0.7095216526040726  1.0000
  C   C72       1.0  0.9905800296741608  0.7432583997096142  0.7904783478234848  1.0000
  C   C73       1.0  0.037429142590438745  0.6995622950167268  0.43877186311096833  1.0000
  C   C74       1.0  0.962570857653641  0.1995622950441131  0.061228136752223494  1.0000
  C   C75       1.0  0.9625708577459943  0.30043770492850064  0.5612281364958436  1.0000
  C   C76       1.0  0.03742914270193212  0.8004377049011143  0.9387718639338155  1.0000
  C   C77       1.0  0.9090098342387993  0.6831908590166896  0.4232787512282967  1.0000
  C   C78       1.0  0.09099016600528036  0.1831908590440759  0.07672124863489507  1.0000
  C   C79       1.0  0.09099016611677373  0.31680914092853785  0.5767212494577422  1.0000
  C   C80       1.0  0.9090098333382985  0.8168091409011515  0.9232787509698152  1.0000
  C   C81       1.0  0.5014738228899234  0.7151682343174842  0.49025892427728035  1.0000
  C   C82       1.0  0.4985261773541563  0.2151682343448705  0.009741075585911417  1.0000
  C   C83       1.0  0.4985261774465095  0.28483176562774326  0.5097410753295315  1.0000
  C   C84       1.0  0.5014738229822766  0.784831765600357  0.9902589240209005  1.0000
  C   C85       1.0  0.512789383202809  0.7573199892972706  0.4379517791253228  1.0000
  C   C86       1.0  0.48721061704127067  0.2573199893246569  0.06204822073786897  1.0000
  C   C87       1.0  0.4872106171336239  0.24268001064795688  0.5620482204814891  1.0000
  C   C88       1.0  0.5127893823023082  0.7426800109436239  0.9379517788668413  1.0000
  C   C89       1.0  0.42797064995762213  0.7892343175212009  0.487327241024604  1.0000
  C   C90       1.0  0.5720293502864576  0.289234317548587  0.012672758838587752  1.0000
  C   C91       1.0  0.5720293503788108  0.21076568242402668  0.5126727585822078  1.0000
  C   C92       1.0  0.4279706490571213  0.7107656823966404  0.9873272407661224  1.0000
  C   C93       1.0  0.32601970994326307  0.7418490817421078  0.6402306555222457  1.0000
  C   C94       1.0  0.673980290485523  0.24184908144644082  0.8597693438281864  1.0000
  C   C95       1.0  0.6739802903931698  0.25815091852617295  0.3597693440845663  1.0000
  C   C96       1.0  0.3260197098509099  0.7581509184987867  0.14023065577862553  1.0000
  C   C97       1.0  0.4055668242419528  0.7077516887168918  0.5951819729874491  1.0000
  C   C98       1.0  0.5944331761868333  0.2077516884212248  0.9048180263629827  1.0000
  C   C99       1.0  0.5944331760944801  0.292248311551389  0.4048180266193627  1.0000
  C   C100      1.0  0.4055668241495996  0.7922483115240027  0.09518197324382902  1.0000
  C   C101      1.0  0.4655744696537677  0.6046325242740911  0.4144058996934849  1.0000
  C   C102      1.0  0.5344255305903121  0.10463252430147733  0.08559410016970685  1.0000
  C   C103      1.0  0.5344255306826652  0.39536747567113645  0.585594099913327  1.0000
  C   C104      1.0  0.4655744697461208  0.8953674756437502  0.914405899437105  1.0000
  C   C105      1.0  0.5473921711179061  0.5784673667900222  0.5015359861346163  1.0000
  C   C106      1.0  0.45260782831802593  0.07846736681740847  0.9984640132137141  1.0000
  C   C107      1.0  0.4526078282256728  0.4215326331552052  0.49846401347009406  1.0000
  C   C108      1.0  0.5473921710255529  0.9215326334508722  0.0015359863909961836  1.0000
  C   C109      1.0  0.4913211592551207  0.5449826362217463  0.5789394281203105  1.0000
  C   C110      1.0  0.5086788411928055  0.04498263624913256  0.9210605723093485  1.0000
  C   C111      1.0  0.5086788411004524  0.45501736372348117  0.4210605725657284  1.0000
  C   C112      1.0  0.49132115914362734  0.9550173636960949  0.07893942729746344  1.0000
  C   C113      1.0  0.28217089618370217  0.5601850151118224  0.48632257652597377  1.0000
  C   C114      1.0  0.7178291040603775  0.06018501513920868  0.01367742333721801  1.0000
  C   C115      1.0  0.7178291041527307  0.4398149848334051  0.5136774230808381  1.0000
  C   C116      1.0  0.28217089627605535  0.9398149848060188  0.986322576269594  1.0000
  C   C117      1.0  0.3300145874029935  0.59461668298909  0.4059528568372915  1.0000
  C   C118      1.0  0.6699854128602264  0.09461668301647622  0.09404714410512721  1.0000
  C   C119      1.0  0.6699854129525795  0.40538331695613755  0.5940471438487473  1.0000
  C   C120      1.0  0.3300145874953467  0.9053833169287512  0.9059528565809117  1.0000
  N   N1        1.0  0.6283022246472088  0.6196918519441101  0.7970017141870345  1.0000
  N   N2        1.0  0.3716977748078636  0.11969185197149643  0.702998286240523  1.0000
  N   N3        1.0  0.37169777469637016  0.3803081480011173  0.20299828541767587  1.0000
  N   N4        1.0  0.6283022245548556  0.880308147973731  0.29700171444341433  1.0000
  N   N5        1.0  0.07903400405279258  0.7358690551946538  0.37506439724888924  1.0000
  N   N6        1.0  0.9209659952175735  0.23586905522204019  0.12493560369142795  1.0000
  N   N7        1.0  0.9209659953099267  0.2641309447505736  0.6249356034350481  1.0000
  N   N8        1.0  0.07903400414514572  0.7641309447231873  0.8750643969925094  1.0000
  N   N9        1.0  0.33583323984908936  0.7820710153200574  0.5866058991945174  1.0000
  N   N10       1.0  0.6641667595868427  0.28207101534744367  0.9133941001538128  1.0000
  N   N11       1.0  0.6641667594944896  0.21792898462517007  0.4133941004101928  1.0000
  N   N12       1.0  0.3358332407495902  0.7179289845977839  0.08660589945299896  1.0000
  N   N13       1.0  0.3608118622682386  0.536087301985492  0.5728236086432129  1.0000
  N   N14       1.0  0.6391881381796877  0.036087302012878304  0.9271763917864461  1.0000
  N   N15       1.0  0.6391881380873345  0.4639126979597354  0.427176392042826  1.0000
  N   N16       1.0  0.36081186217588546  0.9639126979323491  0.07282360889959279  1.0000
  Cl  Cl1       1.0  0.9882576214352564  0.5858555909562299  0.27440286749534465  1.0000
  Cl  Cl2       1.0  0.011742378808823253  0.08585559098361606  0.22559713236784712  1.0000
  Cl  Cl3       1.0  0.011742378920316633  0.4141444089889977  0.7255971331906943  1.0000
  Cl  Cl4       1.0  0.9882576205347556  0.9141444089616115  0.7744028672368631  1.0000
  Cl  Cl5       1.0  0.7351851088306878  0.49181056621384284  0.8600852315198696  1.0000
  Cl  Cl6       1.0  0.2648148915980983  0.9918105661864567  0.6399147678305624  1.0000
  Cl  Cl7       1.0  0.26481489150574516  0.5081894337313846  0.1399147680869423  1.0000
  Cl  Cl8       1.0  0.7351851087383345  0.008189433758770884  0.36008523177624946  1.0000
  Cl  Cl9       1.0  0.8860881098019883  0.5422307398625147  0.6242260427726645  1.0000
  Cl  Cl10      1.0  0.11391188965308409  0.042230739889900955  0.8757739576548931  1.0000
  Cl  Cl11      1.0  0.11391189055358486  0.4577692600827128  0.3757739579133744  1.0000
  Cl  Cl12      1.0  0.8860881096904949  0.9577692600553265  0.12422604194981735  1.0000
  Cl  Cl13      1.0  0.08012766853464942  0.6160742332227488  0.7099894593033373  1.0000
  Cl  Cl14      1.0  0.9198723309012826  0.11607423292708177  0.790010540044993  1.0000
  Cl  Cl15      1.0  0.9198723308089295  0.38392576704553194  0.2900105403013729  1.0000
  Cl  Cl16      1.0  0.08012766844229628  0.8839257670181457  0.2099894595597173  1.0000
  I   I1        1.0  0.7585816607612437  0.5093821225113586  0.22147675096220182  1.0000
  I   I2        1.0  0.24141833948283592  0.009382122538744833  0.27852324890099  1.0000
  I   I3        1.0  0.24141833957518913  0.49061787775692217  0.7785232486446101  1.0000
  I   I4        1.0  0.7585816608535969  0.9906178777295359  0.721476750705822  1.0000
  I   I5        1.0  0.15166828463366389  0.6503306682820088  0.0469800301981192  1.0000
  I   I6        1.0  0.8483317146175621  0.15033066830939515  0.453019969662971  1.0000
  I   I7        1.0  0.8483317147099149  0.3496693316632186  0.9530199694065912  1.0000
  I   I8        1.0  0.151668284726017  0.8496693316358324  0.5469800299417393  1.0000
