data_image0
_chemical_formula_structural       H72C64N16F24P4Br12
_chemical_formula_sum              "H72 C64 N16 F24 P4 Br12"
_cell_length_a       12.047778643410819
_cell_length_b       13.920407477719891
_cell_length_c       12.760067897265989
_cell_angle_alpha    90.0
_cell_angle_beta     94.55144051682134
_cell_angle_gamma    90.0

_space_group_name_H-M_alt    "P 1"
_space_group_IT_number       1

loop_
  _space_group_symop_operation_xyz
  'x, y, z'

loop_
  _atom_site_type_symbol
  _atom_site_label
  _atom_site_symmetry_multiplicity
  _atom_site_fract_x
  _atom_site_fract_y
  _atom_site_fract_z
  _atom_site_occupancy
  H   H1        1.0  0.3881198509531247  0.3494641301115717  0.3725377353442657  1.0000
  H   H2        1.0  0.11188014901925283  0.8494641301934698  0.12746226424035842  1.0000
  H   H3        1.0  0.6118801490586085  0.6505358700522244  0.6274622646111562  1.0000
  H   H4        1.0  0.8881198509924804  0.15053586997032634  0.8725377357150634  1.0000
  H   H5        1.0  0.6904055771296489  0.2357477017287378  0.5280825900214726  1.0000
  H   H6        1.0  0.8095944229214399  0.7357477018106359  0.9719174103047469  1.0000
  H   H7        1.0  0.3095944228820842  0.7642522984350584  0.4719174099339492  1.0000
  H   H8        1.0  0.19040557709029324  0.2642522983531603  0.028082589650674915  1.0000
  H   H9        1.0  0.6348773084290698  0.04058307566816527  0.4942450677785521  1.0000
  H   H10       1.0  0.8651226913075766  0.5405830757500634  0.005754932409420033  1.0000
  H   H11       1.0  0.36512269158266336  0.9594169244956309  0.5057549321768697  1.0000
  H   H12       1.0  0.13487730870415654  0.4594169244137328  0.9942450675460017  1.0000
  H   H13       1.0  0.5904484864980976  0.4141324913963127  0.19630332494864042  1.0000
  H   H14       1.0  0.9095515132385488  0.9141324914782109  0.30369667523933164  1.0000
  H   H15       1.0  0.4095515135136356  0.5858675087674834  0.8036966750067813  1.0000
  H   H16       1.0  0.09044848684016252  0.08586750868558535  0.6963033255022638  1.0000
  H   H17       1.0  0.6462917935053478  0.515988757620514  0.019451738118548063  1.0000
  H   H18       1.0  0.8537082062312985  0.015988757538615967  0.480548262069424  1.0000
  H   H19       1.0  0.3537082065063853  0.4840112425432821  0.9805482618368738  1.0000
  H   H20       1.0  0.14629179378043464  0.9840112419068103  0.5194517378859979  1.0000
  H   H21       1.0  0.3763928773733721  0.505539742372016  0.3121843550598795  1.0000
  H   H22       1.0  0.12360712266598353  0.00553974229011802  0.18781564531091824  1.0000
  H   H23       1.0  0.623607122638361  0.4944602570734103  0.6878156448955425  1.0000
  H   H24       1.0  0.8763928773457496  0.9944602571553083  0.8121843546445036  1.0000
  H   H25       1.0  0.46902774860441143  0.591932724181266  0.3767452727759807  1.0000
  H   H26       1.0  0.030972251367966108  0.09193272409936785  0.12325472680864343  1.0000
  H   H27       1.0  0.5309722514073217  0.40806727598253023  0.6232547271794412  1.0000
  H   H28       1.0  0.9690277486437671  0.9080672753460585  0.8767452731467784  1.0000
  H   H29       1.0  0.6810465992934323  0.526607958260768  0.4110625288908357  1.0000
  H   H30       1.0  0.8189534012731701  0.026607958178869993  0.08893747129628049  1.0000
  H   H31       1.0  0.3189534007183009  0.4733920419030281  0.5889374710645862  1.0000
  H   H32       1.0  0.18104659873856294  0.9733920419849261  0.9110625286591413  1.0000
  H   H33       1.0  0.49997654840396155  0.1595893075368424  0.5473695419228365  1.0000
  H   H34       1.0  2.345194983656828e-05  0.6595893076187405  0.9526304585862087  1.0000
  H   H35       1.0  0.5000234516077716  0.8404106926269538  0.45263045803258534  1.0000
  H   H36       1.0  0.9999765480618965  0.3404106925450557  0.04736954136921317  1.0000
  H   H37       1.0  0.3857654607926154  0.19536469276152632  0.45937681263217506  1.0000
  H   H38       1.0  0.11423453917976208  0.6953646928434244  0.04062318695244902  1.0000
  H   H39       1.0  0.6142345392191177  0.8046353066839  0.5406231873232468  1.0000
  H   H40       1.0  0.8857654608319709  0.304635306602002  0.9593768130029727  1.0000
  H   H41       1.0  0.78448517457146  0.3926930464319557  0.501746560432016  1.0000
  H   H42       1.0  0.7155148254126507  0.8926930465138537  0.9982534391080299  1.0000
  H   H43       1.0  0.21551482544027306  0.6073069530134707  0.49825343952340573  1.0000
  H   H44       1.0  0.28448517459908257  0.10730695293157264  0.0017465608473919687  1.0000
  H   H45       1.0  0.6461670117492981  0.9286383973091423  0.31166460091784787  1.0000
  H   H46       1.0  0.85383298792037  0.4286383972272443  0.1883353984839506  1.0000
  H   H47       1.0  0.3538329882624349  0.0713616028546538  0.6883353990375739  1.0000
  H   H48       1.0  0.14616701126140705  0.5713616022181821  0.8116646014723271  1.0000
  H   H49       1.0  0.4835395746052659  0.7347450759879119  0.9906318680920642  1.0000
  H   H50       1.0  0.016460425681554043  0.23474507590601396  0.5093681316308075  1.0000
  H   H51       1.0  0.5164604254064672  0.26525492345751434  0.009368131863357766  1.0000
  H   H52       1.0  0.9835395743301791  0.7652549235394125  0.4906318683246143  1.0000
  H   H53       1.0  0.6047592120485369  0.6755489639977353  0.9486521191191144  1.0000
  H   H54       1.0  0.8952407880025519  0.17554896391583724  0.5513478812071052  1.0000
  H   H55       1.0  0.3952407879631963  0.3244510361660608  0.051347880836307445  1.0000
  H   H56       1.0  0.10475921207615935  0.8244510362479589  0.44865211953449025  1.0000
  H   H57       1.0  0.618788769551215  0.7609437293379457  0.054038851194511496  1.0000
  H   H58       1.0  0.8812112301854313  0.26094372925604764  0.4459611489934607  1.0000
  H   H59       1.0  0.38121123046051814  0.23905627082585043  0.9459611487609103  1.0000
  H   H60       1.0  0.11878876989327997  0.7390562709077485  0.5540388517481349  1.0000
  H   H61       1.0  0.4094455992199675  0.9655415541184675  0.13586967539805034  1.0000
  H   H62       1.0  0.0905544008193881  0.46554155403656944  0.36413032497274733  1.0000
  H   H63       1.0  0.5905544007917656  0.03445844604532862  0.8641303245573714  1.0000
  H   H64       1.0  0.9094455992593232  0.5344584461272267  0.635869675768848  1.0000
  H   H65       1.0  0.5533519693242239  0.933817693972361  0.13442629186066218  1.0000
  H   H66       1.0  0.9466480304124223  0.43381769389046304  0.3655737083273099  1.0000
  H   H67       1.0  0.4466480306875092  0.06618230619143506  0.8655737080947595  1.0000
  H   H68       1.0  0.0533519695993108  0.5661823062733331  0.6344262916281119  1.0000
  H   H69       1.0  0.509154993651469  0.0506387532928355  0.09032057465468794  1.0000
  H   H70       1.0  0.9908450060851773  0.5506387533747336  0.4096794255332842  1.0000
  H   H71       1.0  0.4908450063602641  0.9493612468709607  0.909679425300734  1.0000
  H   H72       1.0  0.00915499392655585  0.4493612467890626  0.5903205744221377  1.0000
  C   C1        1.0  0.49997517698245836  0.6338153458597728  0.17942050111614735  1.0000
  C   C2        1.0  2.4822989919167766e-05  0.1338153464962445  0.3205794984684768  1.0000
  C   C3        1.0  0.5000248230292749  0.36618465358565355  0.8205794988392745  1.0000
  C   C4        1.0  0.9999751770218138  0.8661846536675516  0.679420501486945  1.0000
  C   C5        1.0  0.5279843476491866  0.4457672564493348  0.3857618379878355  1.0000
  C   C6        1.0  0.9720156529174159  0.9457672565312328  0.11423816219928078  1.0000
  C   C7        1.0  0.4720156523625466  0.5542327437144614  0.6142381619675865  1.0000
  C   C8        1.0  0.02798434709431727  0.0542327436325633  0.8857618377561411  1.0000
  C   C9        1.0  0.5336012922284499  0.2823002930258817  0.4518909604606411  1.0000
  C   C10       1.0  0.9663987082711744  0.7823002931077797  0.0481090389403015  1.0000
  C   C11       1.0  0.46639870778328324  0.7176997064195446  0.5481090394947807  1.0000
  C   C12       1.0  0.03360129174055881  0.2176997063376466  0.9518909610151204  1.0000
  C   C13       1.0  0.4753737249020763  0.35813833380807003  0.4010748702499122  1.0000
  C   C14       1.0  0.024626275137279382  0.858138333889968  0.09892513012088554  1.0000
  C   C15       1.0  0.5246262751096569  0.6418616663557261  0.5989251297055096  1.0000
  C   C16       1.0  0.9753737248744537  0.14186166627382807  0.9010748698345363  1.0000
  C   C17       1.0  0.4664788131410906  0.10247355778077057  0.29469940416295015  1.0000
  C   C18       1.0  0.03352118689826499  0.6024735578626687  0.20530059620784755  1.0000
  C   C19       1.0  0.5335211868706425  0.8975264423830256  0.7053005957924717  1.0000
  C   C20       1.0  0.966478812283512  0.3975264423011275  0.7946994037484302  1.0000
  C   C21       1.0  0.6456182135741579  0.29460546730143083  0.48694041370538477  1.0000
  C   C22       1.0  0.8543817861624884  0.7946054673833288  0.013059586482587343  1.0000
  C   C23       1.0  0.35438178643757523  0.7053945321439955  0.5130595862500371  1.0000
  C   C24       1.0  0.14561821384924475  0.2053945320620975  0.9869404134728345  1.0000
  C   C25       1.0  0.5889351872006804  0.04342032953901743  0.4172602437784343  1.0000
  C   C26       1.0  0.911064812535966  0.5434203296209155  0.08273975640953779  1.0000
  C   C27       1.0  0.4110648128110528  0.956579669906409  0.5827397561769876  1.0000
  C   C28       1.0  0.0889351874757672  0.4565796705428806  0.9172602435458841  1.0000
  C   C29       1.0  0.5713655497988356  0.4868760020744831  0.171014795493845  1.0000
  C   C30       1.0  0.9286344507007888  0.9868760014380114  0.32898520390709757  1.0000
  C   C31       1.0  0.4286344502128975  0.5131239980893131  0.8289852044615769  1.0000
  C   C32       1.0  0.07136554931094448  0.013123998007414948  0.6710147960483244  1.0000
  C   C33       1.0  0.5986550306420126  0.5365781225840565  0.08442869182097194  1.0000
  C   C34       1.0  0.9013449699245899  0.036578122502158396  0.41557130836614425  1.0000
  C   C35       1.0  0.40134496936972053  0.46342187686136993  0.91557130813445  1.0000
  C   C36       1.0  0.09865503008714337  0.9634218769432679  0.5844286915892776  1.0000
  C   C37       1.0  0.46415646374401603  0.5257714252771871  0.32987790141379125  1.0000
  C   C38       1.0  0.035843536295339616  0.025771425195289015  0.17012209895700645  1.0000
  C   C39       1.0  0.5358435362677171  0.474228574886609  0.6701220985416305  1.0000
  C   C40       1.0  0.9641564628864373  0.9742285749685071  0.8298779009992714  1.0000
  C   C41       1.0  0.6399426662377741  0.4580451858327636  0.4218940125878052  1.0000
  C   C42       1.0  0.8600573334988721  0.9580451859146617  0.07810598760016692  1.0000
  C   C43       1.0  0.36005733377395904  0.5419548143310325  0.5781059873676166  1.0000
  C   C44       1.0  0.1399426665128609  0.041954814249134435  0.9218940123552548  1.0000
  C   C45       1.0  0.47651963401696923  0.18779846094190636  0.4685743755493955  1.0000
  C   C46       1.0  0.023480365955408276  0.6877984610238045  0.03142562403522855  1.0000
  C   C47       1.0  0.5234803659947639  0.81220153850352  0.5314256244060263  1.0000
  C   C48       1.0  0.976519634056325  0.31220153842162196  0.9685743759201932  1.0000
  C   C49       1.0  0.6979261895901429  0.3824789230144069  0.47232084747998604  1.0000
  C   C50       1.0  0.8020738109764595  0.8824789230963049  0.027679152707130145  1.0000
  C   C51       1.0  0.30207381042159026  0.6175210771493892  0.5276791524754358  1.0000
  C   C52       1.0  0.19792618903527362  0.11752107706749118  0.9723208472482916  1.0000
  C   C53       1.0  0.5946091751720751  0.9897324228512238  0.328220202593207  1.0000
  C   C54       1.0  0.9053908253945272  0.48973242276932566  0.1717797975939092  1.0000
  C   C55       1.0  0.40539082483965794  0.010267577312572404  0.6717797973622148  1.0000
  C   C56       1.0  0.0946091746172059  0.5102675773944705  0.8282202023615126  1.0000
  C   C57       1.0  0.565404236352673  0.7052146243356927  0.016058969313658356  1.0000
  C   C58       1.0  0.9345957633839733  0.2052146242537946  0.4839410308743138  1.0000
  C   C59       1.0  0.4345957637260382  0.29478537582810344  0.9839410314279372  1.0000
  C   C60       1.0  0.0654042366277599  0.7947853759100015  0.516058969081108  1.0000
  C   C61       1.0  0.4952861232833226  0.9924957974192146  0.14576872874084731  1.0000
  C   C62       1.0  0.004713876756033076  0.4924957980556862  0.3542312716299504  1.0000
  C   C63       1.0  0.5047138767284106  0.007504202026211836  0.8542312712145745  1.0000
  C   C64       1.0  0.9952861232557001  0.5075042021081099  0.6457687283254713  1.0000
  N   N1        1.0  0.5086131102752757  0.11314176273365638  0.3950591234949074  1.0000
  N   N2        1.0  0.9913868894613707  0.6131417628155544  0.10494087669306475  1.0000
  N   N3        1.0  0.4913868897364575  0.88685823671177  0.6049408764605144  1.0000
  N   N4        1.0  0.008613110550362436  0.3868582373482417  0.8950591232623571  1.0000
  N   N5        1.0  0.5534048117691159  0.6275402306995441  0.09065567206634714  1.0000
  N   N6        1.0  0.9465951887974865  0.12754023061764608  0.4093443281207691  1.0000
  N   N7        1.0  0.4465951882426173  0.372459769464252  0.9093443278890747  1.0000
  N   N8        1.0  0.05340481121424661  0.87245976954615  0.5906556718346527  1.0000
  N   N9        1.0  0.5106705095010629  0.5485661093055008  0.22943576805270988  1.0000
  N   N10       1.0  0.9893294901686053  0.0485661092236027  0.27056423134908864  1.0000
  N   N11       1.0  0.48932949051067026  0.4514338908582954  0.770564231902712  1.0000
  N   N12       1.0  0.010670509843127833  0.9514338909401934  0.7294357686063332  1.0000
  N   N13       1.0  0.5183150050707884  0.027783293744742376  0.2526197657247572  1.0000
  N   N14       1.0  0.9816849945988797  0.5277832938266405  0.2473802336770413  1.0000
  N   N15       1.0  0.4816849949409446  0.972216705700684  0.7473802342306646  1.0000
  N   N16       1.0  0.018315005412853518  0.47221670633715573  0.7526197662783806  1.0000
  F   F1        1.0  0.3495356828321268  0.30083224910639833  0.6119453415530358  1.0000
  F   F2        1.0  0.15046431669171517  0.8008322491882963  0.8880546589568652  1.0000
  F   F3        1.0  0.6504643171796063  0.6991677510573978  0.38805465840238595  1.0000
  F   F4        1.0  0.8495356833200179  0.19916775097549977  0.11194534099855663  1.0000
  F   F5        1.0  0.22030854740689604  0.17978427743624698  0.5758999748651801  1.0000
  F   F6        1.0  0.2796914528799239  0.6797842767997753  0.9241000248576916  1.0000
  F   F7        1.0  0.779691452604837  0.8202157227275492  0.4241000250902418  1.0000
  F   F8        1.0  0.7203085471318093  0.3202157226456511  0.07589997509773032  1.0000
  F   F9        1.0  0.2405976555657937  0.36370098634708053  0.7364211988163535  1.0000
  F   F10       1.0  0.25940234472102625  0.8637009857106089  0.763578800906518  1.0000
  F   F11       1.0  0.7594023444459393  0.6362990138167156  0.26357880113906834  1.0000
  F   F12       1.0  0.7405976552907069  0.13629901373481754  0.23642119904890377  1.0000
  F   F13       1.0  0.29504469145465195  0.204076776096307  0.7472126408413482  1.0000
  F   F14       1.0  0.204955308832168  0.7040767761782051  0.7527873588815235  1.0000
  F   F15       1.0  0.7049553085570811  0.7959232233491192  0.25278735911407374  1.0000
  F   F16       1.0  0.795044691179565  0.29592322398559107  0.2472126410738984  1.0000
  F   F17       1.0  0.11074692952211199  0.24311510819037668  0.7003095942699213  1.0000
  F   F18       1.0  0.3892530699347519  0.7431151082722748  0.7996904054538062  1.0000
  F   F19       1.0  0.8892530704896211  0.7568848919734195  0.2996904056855006  1.0000
  F   F20       1.0  0.6107469300769812  0.25688489189152136  0.20030959450161565  1.0000
  F   F21       1.0  0.1652693491054904  0.3397393810180794  0.5652263730932423  1.0000
  F   F22       1.0  0.3347306504183516  0.8397393810999775  0.9347736274166588  1.0000
  F   F23       1.0  0.8347306509062428  0.6602606191457168  0.4347736268621795  1.0000
  F   F24       1.0  0.6652693495933816  0.16026061906381867  0.06522637253876308  1.0000
  P   P1        1.0  0.23041270209264011  0.27230112308615234  0.6564702603149555  1.0000
  P   P2        1.0  0.26958729819417987  0.7723011231680504  0.843529739407916  1.0000
  P   P3        1.0  0.7695872979190931  0.727698876359274  0.3435297396404663  1.0000
  P   P4        1.0  0.7304127018175531  0.22769887627737592  0.1564702605475058  1.0000
  Br  Br1       1.0  0.42174315330393336  0.7399725465283016  0.22437176675505477  1.0000
  Br  Br2       1.0  0.0782568467354223  0.23997254716477334  0.27562823361574296  1.0000
  Br  Br3       1.0  0.5782568467077998  0.2600274529171247  0.7756282332003669  1.0000
  Br  Br4       1.0  0.9217431532763107  0.7600274529990229  0.724371766339679  1.0000
  Br  Br5       1.0  0.358455781238756  0.18002155497322184  0.22849268059978528  1.0000
  Br  Br6       1.0  0.1415442187336214  0.6800215550551199  0.2715073189848388  1.0000
  Br  Br7       1.0  0.6415442187729771  0.8199784444722045  0.7715073193556364  1.0000
  Br  Br8       1.0  0.8584557812781116  0.3199784451086762  0.728492680970583  1.0000
  Br  Br9       1.0  0.27452905874458167  0.9020209358165072  0.32127238751105497  1.0000
  Br  Br10      1.0  0.22547094129477394  0.40202093573460906  0.17872761285974273  1.0000
  Br  Br11      1.0  0.7254709412671515  0.09797906434728898  0.6787276124443669  1.0000
  Br  Br12      1.0  0.7745290587169591  0.597979064429187  0.8212723870956791  1.0000
