data_image0
_chemical_formula_structural       H36C76N4F16I8
_chemical_formula_sum              "H36 C76 N4 F16 I8"
_cell_length_a       11.03991725233527
_cell_length_b       9.591194713566034
_cell_length_c       16.972656457559825
_cell_angle_alpha    90.0
_cell_angle_beta     106.87950894700543
_cell_angle_gamma    90.0

_space_group_name_H-M_alt    "P 1"
_space_group_IT_number       1

loop_
  _space_group_symop_operation_xyz
  'x, y, z'

loop_
  _atom_site_type_symbol
  _atom_site_label
  _atom_site_symmetry_multiplicity
  _atom_site_fract_x
  _atom_site_fract_y
  _atom_site_fract_z
  _atom_site_occupancy
  H   H1        1.0  0.8215433960767415  0.9282223503822422  0.4512178882563484  1.0000
  H   H2        1.0  0.6784566034596478  0.4282223500468322  0.04878211161444297  1.0000
  H   H3        1.0  0.17845660335403157  0.07177764924595494  0.5487821111853944  1.0000
  H   H4        1.0  0.32154339625289846  0.571777649581365  0.9512178884429912  1.0000
  H   H5        1.0  0.6260978944228094  0.9234627545901318  0.33299530130180577  1.0000
  H   H6        1.0  0.8739021051135798  0.42346275425472174  0.16700469856898562  1.0000
  H   H7        1.0  0.3739021052897368  0.0765372450380653  0.6670046987556283  1.0000
  H   H8        1.0  0.1260978945989663  0.5765372453734754  0.8329953014884485  1.0000
  H   H9        1.0  0.6154532112370242  0.27144584671162564  0.5927821250319049  1.0000
  H   H10       1.0  0.8845467887836319  0.7714458470470358  0.9072178750518907  1.0000
  H   H11       1.0  0.3845467893791961  0.7285541529165714  0.4072178750208182  1.0000
  H   H12       1.0  0.115453210928914  0.2285541525811614  0.0927821250055433  1.0000
  H   H13       1.0  0.1092685411087645  0.16622678483890665  0.237341812324071  1.0000
  H   H14       1.0  0.39073145919934577  0.6662267851743167  0.2626581877022905  1.0000
  H   H15       1.0  0.890731459507456  0.8337732147892905  0.7626581877286521  1.0000
  H   H16       1.0  0.6092685405132005  0.3337732144538804  0.7373418123551436  1.0000
  H   H17       1.0  0.4260365741107745  0.9218865453219979  0.21695253409404577  1.0000
  H   H18       1.0  0.07396342619733567  0.4218865449865878  0.2830474659323157  1.0000
  H   H19       1.0  0.5739634256017716  0.07811345430619923  0.7830474659633884  1.0000
  H   H20       1.0  0.9260365744188849  0.5781134546416093  0.7169525341204074  1.0000
  H   H21       1.0  0.9372815189876835  0.01954194712936995  0.5895435390059949  1.0000
  H   H22       1.0  0.5627184810329727  0.519541946422157  0.9104564610778006  1.0000
  H   H23       1.0  0.06271848072486251  0.9804580535414501  0.4104564610514391  1.0000
  H   H24       1.0  0.43728151958324774  0.48045805320604007  0.08954353897492238  1.0000
  H   H25       1.0  0.8339128070445826  0.1909973590056433  0.6595723027007047  1.0000
  H   H26       1.0  0.6660871929760737  0.6909973593410534  0.840427697383091  1.0000
  H   H27       1.0  0.16608719266796337  0.8090026406225538  0.3404276973567293  1.0000
  H   H28       1.0  0.33391280764014686  0.30900264132976674  0.15957230266963218  1.0000
  H   H29       1.0  0.23520455286076677  0.2553397781129448  0.37334020549124497  1.0000
  H   H30       1.0  0.26479544654366904  0.7553397784483548  0.12665979453982754  1.0000
  H   H31       1.0  0.7647954468517791  0.7446602215152524  0.626659794566189  1.0000
  H   H32       1.0  0.735204553168877  0.24466022222246528  0.8733402055176065  1.0000
  H   H33       1.0  0.20349798123496482  5.5764690007126465e-05  0.15906224909968233  1.0000
  H   H34       1.0  0.29650201907314544  0.5000557650254172  0.34093775092667916  1.0000
  H   H35       1.0  0.7965020184775812  0.999944235980813  0.8409377509577518  1.0000
  H   H36       1.0  0.7034979815430751  0.4999442356454029  0.6590622491260438  1.0000
  C   C1        1.0  0.9030180911465263  0.3030135459443137  0.4294031198021546  1.0000
  C   C2        1.0  0.5969819083898629  0.8030135462797238  0.07059688006863685  1.0000
  C   C3        1.0  0.09698190856601976  0.6969864536838835  0.5705968802552795  1.0000
  C   C4        1.0  0.40301809132268324  0.19698645334847337  0.9294031199887972  1.0000
  C   C5        1.0  0.8450158264800104  0.25342443069808973  0.350332286518346  1.0000
  C   C6        1.0  0.6549841730563787  0.7534244310334998  0.1496677133524454  1.0000
  C   C7        1.0  0.15498417323253566  0.7465755689301075  0.649667713539088  1.0000
  C   C8        1.0  0.3450158266561674  0.2465755696373203  0.8503322867049887  1.0000
  C   C9        1.0  0.8414614373299791  0.40269330206976706  0.4635181873100991  1.0000
  C   C10       1.0  0.6585385622064099  0.9026933013625542  0.036481812560692384  1.0000
  C   C11       1.0  0.15853856210079373  0.597306698601053  0.5364818121316437  1.0000
  C   C12       1.0  0.34146143750613617  0.09730669826564296  0.9635181874967417  1.0000
  C   C13       1.0  0.7256494585001861  0.3017269752543718  0.3053608822185559  1.0000
  C   C14       1.0  0.774350541036203  0.8017269755897818  0.1946391176522355  1.0000
  C   C15       1.0  0.27435054121235997  0.6982730243738253  0.6946391178388781  1.0000
  C   C16       1.0  0.22564945867634315  0.1982730240384153  0.8053608824051987  1.0000
  C   C17       1.0  0.667179804953469  0.40165813697339414  0.34191439086024983  1.0000
  C   C18       1.0  0.8328201954865945  0.9016581373088043  0.15808560900583057  1.0000
  C   C19       1.0  0.33282019475907704  0.5983418626548029  0.6580856091971843  1.0000
  C   C20       1.0  0.1671798051296259  0.09834186336201588  0.8419143910468925  1.0000
  C   C21       1.0  0.7232241329315461  0.45529364072063633  0.4204482027372965  1.0000
  C   C22       1.0  0.7767758677902906  0.9552936400134234  0.0795517977444751  1.0000
  C   C23       1.0  0.27677586768467444  0.5447063599501838  0.5795517973154265  1.0000
  C   C24       1.0  0.22322413282592984  0.04470635961477375  0.920448202308248  1.0000
  C   C25       1.0  0.45853730541061993  0.04321443598822485  0.3288660483975447  1.0000
  C   C26       1.0  0.04146269489749024  0.5432144352810119  0.17113395162881678  1.0000
  C   C27       1.0  0.5414626952056005  0.9567855646825952  0.6711339516551784  1.0000
  C   C28       1.0  0.9585373048150558  0.4567855643471852  0.8288660484286172  1.0000
  C   C29       1.0  0.777773917819127  0.003794579412356482  0.48242649624521766  1.0000
  C   C30       1.0  0.7222260817172623  0.5037945797477665  0.017573503625573722  1.0000
  C   C31       1.0  0.22222608189341916  0.9962054202158406  0.5175735038122163  1.0000
  C   C32       1.0  0.27777391799528384  0.49620541988043054  0.9824264964318604  1.0000
  C   C33       1.0  0.5911235660239323  0.14669423174257332  0.4830746418786128  1.0000
  C   C34       1.0  0.9088764346979042  0.6466942320779834  0.01692535860315879  1.0000
  C   C35       1.0  0.40887643459228806  0.8533057678856238  0.5169253581741102  1.0000
  C   C36       1.0  0.09112356591831626  0.3533057675502137  0.9830746414495642  1.0000
  C   C37       1.0  0.5827523488418447  0.998505950093395  0.3649530177036907  1.0000
  C   C38       1.0  0.9172476509763176  0.49850594975798496  0.13504698278279195  1.0000
  C   C39       1.0  0.4172476508707014  0.0014940505774251106  0.6350469823537434  1.0000
  C   C40       1.0  0.08275234873622851  0.5014940498702122  0.8649530172746421  1.0000
  C   C41       1.0  0.6610031406238653  0.19717068899927304  0.5621270322004854  1.0000
  C   C42       1.0  0.8389968593967908  0.6971706882920601  0.9378729678833101  1.0000
  C   C43       1.0  0.3389968590886807  0.802829311671547  0.4378729678569486  1.0000
  C   C44       1.0  0.1610031403157551  0.30282931133613705  0.06212703217412388  1.0000
  C   C45       1.0  0.6516853220940722  0.047859133685477305  0.44238272420503044  1.0000
  C   C46       1.0  0.848314677442317  0.5478591340208874  0.05761727566576101  1.0000
  C   C47       1.0  0.348314677618474  0.9521408659427197  0.5576172758524036  1.0000
  C   C48       1.0  0.1516853222702289  0.4521408656073097  0.9423827243916729  1.0000
  C   C49       1.0  0.20739677791921973  0.13367242541605326  0.26330202572120887  1.0000
  C   C50       1.0  0.2926032223888906  0.6336724257514633  0.2366979743051527  1.0000
  C   C51       1.0  0.7926032226970008  0.8663275742121438  0.7366979743315142  1.0000
  C   C52       1.0  0.7073967782273299  0.3663275738767338  0.7633020257475703  1.0000
  C   C53       1.0  0.4045013345148667  0.14109224350183797  0.37409144464434396  1.0000
  C   C54       1.0  0.09549866488956915  0.641092243837248  0.12590855538672863  1.0000
  C   C55       1.0  0.5954986651976794  0.8589077561263592  0.6259085554130901  1.0000
  C   C56       1.0  0.9045013348229769  0.35890775579094913  0.8740914446707054  1.0000
  C   C57       1.0  0.3836362612252603  0.9948697065344282  0.25057568719988704  1.0000
  C   C58       1.0  0.11636373908284994  0.49486970619901827  0.24942431282647443  1.0000
  C   C59       1.0  0.6163637393909601  0.005130294136391815  0.749424312852836  1.0000
  C   C60       1.0  0.8836362606296961  0.5051302934291788  0.7505756872309596  1.0000
  C   C61       1.0  0.8413858718440574  0.05441615936143893  0.5588225613242556  1.0000
  C   C62       1.0  0.6586141278948259  0.554416159696849  0.9411774381438487  1.0000
  C   C63       1.0  0.158614128772163  0.9455838402667582  0.44117743872846743  1.0000
  C   C64       1.0  0.34138587153594724  0.44558383993134815  0.058822561297894135  1.0000
  C   C65       1.0  0.7823387845255687  0.1521077971586272  0.5987745036162535  1.0000
  C   C66       1.0  0.7176612154950875  0.6521077974940372  0.9012254964675421  1.0000
  C   C67       1.0  0.2176612151869774  0.8478922024695699  0.4012254964411806  1.0000
  C   C68       1.0  0.28233878512113286  0.3478922031767828  0.09877450358518092  1.0000
  C   C69       1.0  0.27677752926885674  0.18393661297530636  0.33861621857499496  1.0000
  C   C70       1.0  0.2232224701355791  0.6839366133107164  0.16138378145607757  1.0000
  C   C71       1.0  0.7232224704436893  0.8160633866528907  0.661383781482439  1.0000
  C   C72       1.0  0.776777529576967  0.3160633873601037  0.8386162186013565  1.0000
  C   C73       1.0  0.2607658131374262  0.03844681825491762  0.21862520690161136  1.0000
  C   C74       1.0  0.239234187170684  0.5384468175477046  0.28137479312475017  1.0000
  C   C75       1.0  0.7392341874787943  0.9615531824159025  0.7813747931511116  1.0000
  C   C76       1.0  0.760765812541862  0.46155318208049245  0.718625206932684  1.0000
  N   N1        1.0  0.47110244009148394  0.1904994158251921  0.4486730707662072  1.0000
  N   N2        1.0  0.028897559312952008  0.6904994151179792  0.05132692926486538  1.0000
  N   N3        1.0  0.5288975596210622  0.809500584845628  0.5513269292912268  1.0000
  N   N4        1.0  0.9711024403995941  0.30950058451021795  0.9486730707925687  1.0000
  F   F1        1.0  0.9011292061025395  0.44827496974059833  0.5407160161944572  1.0000
  F   F2        1.0  0.5988707939181167  0.9482749700760083  0.9592839838893383  1.0000
  F   F3        1.0  0.09887079361000649  0.5517250298875988  0.4592839838629768  1.0000
  F   F4        1.0  0.40112920669810376  0.05172503059481177  0.040716016163384695  1.0000
  F   F5        1.0  0.018025946280624705  0.2540555992001156  0.4726655260785989  1.0000
  F   F6        1.0  0.4819740531238112  0.7540555995355257  0.027334473952473678  1.0000
  F   F7        1.0  0.9819740534319215  0.7459444004280815  0.5273344739788351  1.0000
  F   F8        1.0  0.5180259465887349  0.24594440113529442  0.9726655261049605  1.0000
  F   F9        1.0  0.5510674379218852  0.4487985061873037  0.2987287038640138  1.0000
  F   F10       1.0  0.9489325618962771  0.9487985065227138  0.2012712966224689  1.0000
  F   F11       1.0  0.44893256179066093  0.5512014934408934  0.7012712961934202  1.0000
  F   F12       1.0  0.051067437816269025  0.05120149310548339  0.7987287034349652  1.0000
  F   F13       1.0  0.9062390774710926  0.15584128824804816  0.31869184327003963  1.0000
  F   F14       1.0  0.5937609220652966  0.6558412885834582  0.1813081566007518  1.0000
  F   F15       1.0  0.09376092224145355  0.844158711380149  0.6813081567873944  1.0000
  F   F16       1.0  0.40623907764724954  0.3441587120873619  0.8186918434566823  1.0000
  I   I1        1.0  0.636836906905952  0.6132464980281004  0.473440418298499  1.0000
  I   I2        1.0  0.8631630935341115  0.11324649769269038  0.02655958156758139  1.0000
  I   I3        1.0  0.3631630934284954  0.3867535026427197  0.5265595811385329  1.0000
  I   I4        1.0  0.1368369061784346  0.8867535019355067  0.9734404184898527  1.0000
  I   I5        1.0  0.6379903351714009  0.22543224849160642  0.1877579202650961  1.0000
  I   I6        1.0  0.8620096643649882  0.7254322488270165  0.3122420796056953  1.0000
  I   I7        1.0  0.36200966454114514  0.7745677511365907  0.8122420797923379  1.0000
  I   I8        1.0  0.1379903353475579  0.27456775184380366  0.6877579204517388  1.0000
