data_image0
_chemical_formula_structural       H18C20N2F4I2
_chemical_formula_sum              "H18 C20 N2 F4 I2"
_cell_length_a       8.258530306680463
_cell_length_b       8.668643040087156
_cell_length_c       8.863556070561526
_cell_angle_alpha    89.17086669947633
_cell_angle_beta     64.35688518942484
_cell_angle_gamma    67.5172212079035

_space_group_name_H-M_alt    "P 1"
_space_group_IT_number       1

loop_
  _space_group_symop_operation_xyz
  'x, y, z'

loop_
  _atom_site_type_symbol
  _atom_site_label
  _atom_site_symmetry_multiplicity
  _atom_site_fract_x
  _atom_site_fract_y
  _atom_site_fract_z
  _atom_site_occupancy
  H   H1        1.0  0.14748173235791873  0.6071795094401669  0.17932381147886867  1.0000
  H   H2        1.0  0.852518268517825  0.3928204893365286  0.8206761879505416  1.0000
  H   H3        1.0  0.5217230100735998  0.872889933750912  0.065165275985825  1.0000
  H   H4        1.0  0.47827699029096193  0.1271100662746625  0.9348347234460178  1.0000
  H   H5        1.0  0.5924668886167513  0.44427481703063043  0.3218485153528921  1.0000
  H   H6        1.0  0.40753311106177387  0.5557251832226927  0.678151485351509  1.0000
  H   H7        1.0  0.18092112925135453  0.0036864525668858813  0.06043293357484017  1.0000
  H   H8        1.0  0.8190788704271708  0.9963135476864371  0.9395670671295608  1.0000
  H   H9        1.0  0.06920914693326422  0.8637184058229541  0.06098134791105779  1.0000
  H   H10       1.0  0.9307908534312976  0.13628159420262043  0.939018651520785  1.0000
  H   H11       1.0  0.2978876341134623  0.8361131586895036  0.8859526244117195  1.0000
  H   H12       1.0  0.7021123662510994  0.16388684133607073  0.11404737502012337  1.0000
  H   H13       1.0  0.825166663025539  0.5726312959656568  0.25491575449027853  1.0000
  H   H14       1.0  0.1748333373390229  0.42736870405991767  0.7450842449415642  1.0000
  H   H15       1.0  0.7057322103033669  0.7965704415101339  0.279216403041912  1.0000
  H   H16       1.0  0.2942677893751582  0.2034295587431892  0.7207835976624891  1.0000
  H   H17       1.0  0.8649279671823935  0.6716206351299345  0.07197786032472309  1.0000
  H   H18       1.0  0.13507203318216807  0.3283793648956399  0.9280221391071197  1.0000
  C   C1        1.0  0.9375455812629938  0.12450081292482187  0.41486162238300045  1.0000
  C   C2        1.0  0.0624544191015679  0.8754991871007526  0.5851383770488424  1.0000
  C   C3        1.0  0.15868585019946876  0.9816060009304095  0.5270106134108854  1.0000
  C   C4        1.0  0.8413141494790566  0.018393999322913582  0.4729893872935156  1.0000
  C   C5        1.0  0.09806263207915161  0.10839422081014499  0.44008478390033634  1.0000
  C   C6        1.0  0.9019373682854099  0.8916057792154295  0.5599152155315065  1.0000
  C   C7        1.0  0.3199288915537856  0.7565601590283487  0.10984924289369732  1.0000
  C   C8        1.0  0.6800711081247396  0.24343984122497436  0.8901507578107039  1.0000
  C   C9        1.0  0.2700892152083623  0.6262124520796122  0.18108645476697727  1.0000
  C   C10       1.0  0.729910784470163  0.3737875481737108  0.8189135459374238  1.0000
  C   C11       1.0  0.47822070089789287  0.7722595827963045  0.11823344646985323  1.0000
  C   C12       1.0  0.5217792994666689  0.22774041722927002  0.8817665529619897  1.0000
  C   C13       1.0  0.518424441315582  0.5354005526069553  0.2611355322846026  1.0000
  C   C14       1.0  0.4815755590489799  0.4645994474186192  0.7388644671472403  1.0000
  C   C15       1.0  0.5820176783466693  0.660712326782646  0.19352221830000943  1.0000
  C   C16       1.0  0.417982321331856  0.3392876734706771  0.8064777824043916  1.0000
  C   C17       1.0  0.2104067886576339  0.8712160653359383  0.025323992134034343  1.0000
  C   C18       1.0  0.7895932117069279  0.12878393468963611  0.9746760072978085  1.0000
  C   C19       1.0  0.7540924225009886  0.6754369166070879  0.2004610097088299  1.0000
  C   C20       1.0  0.24590757786357306  0.3245630834184866  0.799538989723013  1.0000
  N   N1        1.0  0.36671763302194355  0.5186909736550941  0.2544252696144702  1.0000
  N   N2        1.0  0.6332823673426183  0.48130902637048034  0.7455747298173726  1.0000
  F   F1        1.0  0.8727239408857114  0.2459503922744715  0.32986908694243994  1.0000
  F   F2        1.0  0.12727605879281378  0.7540496079788516  0.6701309137619611  1.0000
  F   F3        1.0  0.3136313043973589  0.9594459553174356  0.5570799696926235  1.0000
  F   F4        1.0  0.6863686959672026  0.04055404470813885  0.44292002973921935  1.0000
  I   I1        1.0  0.23616435446462555  0.2769767412632277  0.35439636397490915  1.0000
  I   I2        1.0  0.7638356452059237  0.7230232575037664  0.645603635450747  1.0000
