data_image0
_chemical_formula_structural       H22C28N2F8I4
_chemical_formula_sum              "H22 C28 N2 F8 I4"
_cell_length_a       7.838287020732604
_cell_length_b       8.84742212900494
_cell_length_c       12.067072957388811
_cell_angle_alpha    95.43220796891264
_cell_angle_beta     90.34693816704177
_cell_angle_gamma    113.39342276752427

_space_group_name_H-M_alt    "P 1"
_space_group_IT_number       1

loop_
  _space_group_symop_operation_xyz
  'x, y, z'

loop_
  _atom_site_type_symbol
  _atom_site_label
  _atom_site_symmetry_multiplicity
  _atom_site_fract_x
  _atom_site_fract_y
  _atom_site_fract_z
  _atom_site_occupancy
  H   H1        1.0  0.3626979720433099  0.014091056268195717  0.07902071045217413  1.0000
  H   H2        1.0  0.6373020266537086  0.9859089429380574  0.9209792895184806  1.0000
  H   H3        1.0  0.609811682537191  0.015119156529618972  0.3990784532643879  1.0000
  H   H4        1.0  0.39018831743806254  0.9848808426828523  0.6009215466922598  1.0000
  H   H5        1.0  0.9076213195482131  0.452100565467338  0.4171634306250568  1.0000
  H   H6        1.0  0.0923786809702084  0.5478994349765994  0.5828365693315459  1.0000
  H   H7        1.0  0.824342635633699  0.2728902406702083  0.4910207965569642  1.0000
  H   H8        1.0  0.17565736434155454  0.727109758542263  0.5089792033996834  1.0000
  H   H9        1.0  0.7048689388209487  0.4070800390175673  0.4936216016977468  1.0000
  H   H10       1.0  0.2951310616974727  0.5929199614263702  0.5063783982588559  1.0000
  H   H11       1.0  0.470978735714744  0.44993197085638176  0.11352054907600453  1.0000
  H   H12       1.0  0.5290212648036775  0.5500680295875556  0.8864794508805982  1.0000
  H   H13       1.0  0.4045656195823311  0.272129055708975  0.013898507313722218  1.0000
  H   H14       1.0  0.5954343803929225  0.7278709435034962  0.9861014926429255  1.0000
  H   H15       1.0  0.6422905062804449  0.40967948739044463  0.03754774635204303  1.0000
  H   H16       1.0  0.35770949369480864  0.5903205118220267  0.9624522536046047  1.0000
  H   H17       1.0  0.31663356473542836  0.7516437909203864  0.1445885863018802  1.0000
  H   H18       1.0  0.683366435782993  0.24835620952355097  0.8554114136547225  1.0000
  H   H19       1.0  0.28143701934509885  0.7593378226405519  0.28962564626177956  1.0000
  H   H20       1.0  0.7185629806301549  0.24066217657191946  0.7103743536948682  1.0000
  H   H21       1.0  0.48996569368320747  0.7520220612744088  0.24069355585584518  1.0000
  H   H22       1.0  0.5100343068352139  0.24797793916952837  0.7593064441007575  1.0000
  C   C1        1.0  0.1918074737979994  0.20077599400883056  0.3648142520726316  1.0000
  C   C2        1.0  0.8081925267204221  0.7992240064351067  0.6351857478839711  1.0000
  C   C3        1.0  0.03610040353076246  0.19544773704716412  0.1892420232014768  1.0000
  C   C4        1.0  0.963899595166256  0.8045522621590888  0.8107579767691779  1.0000
  C   C5        1.0  0.15919396617141277  0.2827497534196493  0.27936726963705616  1.0000
  C   C6        1.0  0.8408060343470086  0.7172502470242881  0.7206327303195464  1.0000
  C   C7        1.0  0.9442365322863647  0.024007040326696497  0.18885444609604177  1.0000
  C   C8        1.0  0.055763467688888825  0.9759929588857749  0.811145553860606  1.0000
  C   C9        1.0  0.09957461719696005  0.029252211111225217  0.3594810080108388  1.0000
  C   C10       1.0  0.9004253827782935  0.9707477881012461  0.640518991945809  1.0000
  C   C11       1.0  0.9729991440100452  0.9368312084711439  0.27234141828350295  1.0000
  C   C12       1.0  0.027000855965208324  0.0631687907413273  0.7276585816731448  1.0000
  C   C13       1.0  0.44871022728653787  0.07834567996512515  0.1540560941714778  1.0000
  C   C14       1.0  0.5512897732318836  0.9216543204788121  0.8459439057851248  1.0000
  C   C15       1.0  0.5330329385330891  0.2513881225717085  0.16659558316807796  1.0000
  C   C16       1.0  0.4669670619853324  0.7486118778722289  0.8334044167885246  1.0000
  C   C17       1.0  0.5848859528555641  0.07874469981287903  0.331645868121647  1.0000
  C   C18       1.0  0.4151140476628572  0.9212553006310583  0.6683541318349556  1.0000
  C   C19       1.0  0.6658483164639009  0.25158252284829963  0.34005645678041385  1.0000
  C   C20       1.0  0.3341516840545206  0.7484174775956378  0.6599435431761889  1.0000
  C   C21       1.0  0.47386348507068105  0.9884504438785722  0.23721151242070262  1.0000
  C   C22       1.0  0.5261365154477403  0.011549556565365089  0.7627884875359001  1.0000
  C   C23       1.0  0.7827412384992435  0.35071397206141497  0.4411124428284553  1.0000
  C   C24       1.0  0.21725876147601003  0.6492860271510563  0.5588875571281923  1.0000
  C   C25       1.0  0.5100830239800361  0.35010839605963656  0.07791986607525789  1.0000
  C   C26       1.0  0.4899169759952175  0.6498916031528347  0.9220801338813898  1.0000
  C   C27       1.0  0.38589190401288676  0.8033338416418255  0.22682865563999197  1.0000
  C   C28       1.0  0.6141080965935326  0.19666615893328948  0.7731713451498842  1.0000
  N   N1        1.0  0.6405830132911686  0.335861596065573  0.2582235017368103  1.0000
  N   N2        1.0  0.3594169872272526  0.6641384043783642  0.7417764982197924  1.0000
  F   F1        1.0  0.13724868628269724  0.9531543352986712  0.44300253043586707  1.0000
  F   F2        1.0  0.8627513136925563  0.04684566391379998  0.5569974695207807  1.0000
  F   F3        1.0  0.25162254855589966  0.44882500622997634  0.2853905462032472  1.0000
  F   F4        1.0  0.748377451419354  0.5511749929824951  0.7146094537534006  1.0000
  F   F5        1.0  0.8200319209181614  0.9389357150298213  0.10306274222316857  1.0000
  F   F6        1.0  0.17996807832202497  0.0610642854078979  0.8969372577474412  1.0000
  F   F7        1.0  0.3132931296130486  0.28727328825256165  0.450580338355545  1.0000
  F   F8        1.0  0.6867068690839697  0.7127267109536914  0.5494196616151098  1.0000
  I   I1        1.0  0.8286408383174151  0.6742268328821701  0.26849778596246515  1.0000
  I   I2        1.0  0.1713591609227712  0.325773167555549  0.7315022140081447  1.0000
  I   I3        1.0  0.9998839147908901  0.31613391317377615  0.055768384502078196  1.0000
  I   I4        1.0  0.00011608572753126911  0.6838660872701612  0.9442316154545244  1.0000
