data_image0
_chemical_formula_structural       H28C60N4F16I8
_chemical_formula_sum              "H28 C60 N4 F16 I8"
_cell_length_a       12.833969671728042
_cell_length_b       9.094528733428108
_cell_length_c       13.722244648323588
_cell_angle_alpha    90.0
_cell_angle_beta     109.0329140305284
_cell_angle_gamma    90.0

_space_group_name_H-M_alt    "P 1"
_space_group_IT_number       1

loop_
  _space_group_symop_operation_xyz
  'x, y, z'

loop_
  _atom_site_type_symbol
  _atom_site_label
  _atom_site_symmetry_multiplicity
  _atom_site_fract_x
  _atom_site_fract_y
  _atom_site_fract_z
  _atom_site_occupancy
  H   H1        1.0  0.775314500228675  0.6115022672432312  0.2852459055656179  1.0000
  H   H2        1.0  0.22468549947052488  0.11150226688192101  0.2147540940774513  1.0000
  H   H3        1.0  0.22468549946235203  0.388497732379827  0.7147540944881499  1.0000
  H   H4        1.0  0.7753145002205021  0.8884977327411372  0.7852459059763164  1.0000
  H   H5        1.0  0.9445220553032712  0.21697407505536456  0.3521129397429814  1.0000
  H   H6        1.0  0.055477945449144736  0.7169740754166748  0.14788706066293467  1.0000
  H   H7        1.0  0.05547794516410691  0.7830259245676936  0.6478870603027876  1.0000
  H   H8        1.0  0.9445220550182333  0.2830259253059456  0.8521129393828343  1.0000
  H   H9        1.0  0.8468080007545842  0.9746883725176447  0.3077919008541946  1.0000
  H   H10       1.0  0.15319199922148063  0.47468837215633464  0.1922080995597201  1.0000
  H   H11       1.0  0.15319199893644286  0.02531162710541341  0.6922080991995732  1.0000
  H   H12       1.0  0.8468080012458975  0.5253116274667236  0.807791900486049  1.0000
  H   H13       1.0  0.49605886419747997  0.97021756691663  0.15263389604528188  1.0000
  H   H14       1.0  0.5039411355017198  0.4702175665553198  0.34736610359778736  1.0000
  H   H15       1.0  0.5039411354935469  0.029782432706428167  0.8473661040084859  1.0000
  H   H16       1.0  0.4960588641893071  0.5297824330677383  0.6526338964559802  1.0000
  H   H17       1.0  0.5933575259119532  0.48483252175486186  0.20834235377435079  1.0000
  H   H18       1.0  0.40664247406411147  0.984832522116172  0.291657646639564  1.0000
  H   H19       1.0  0.40664247377907375  0.5151674778681963  0.7916576462794169  1.0000
  H   H20       1.0  0.5933575264032666  0.015167477506886082  0.708342353406205  1.0000
  H   H21       1.0  0.4895221635972471  0.24179887869473887  0.15959353749695915  1.0000
  H   H22       1.0  0.5104778371551689  0.741798879056049  0.34040646290895693  1.0000
  H   H23       1.0  0.510477836870131  0.7582011209283194  0.8404064625488099  1.0000
  H   H24       1.0  0.4895221633122092  0.25820112056700917  0.6595935371368121  1.0000
  H   H25       1.0  0.672729975407599  0.8364291897874548  0.22651010332384658  1.0000
  H   H26       1.0  0.327270025344817  0.3364291894261446  0.2734898970820695  1.0000
  H   H27       1.0  0.3272700250597791  0.16357080983560338  0.7734898967219225  1.0000
  H   H28       1.0  0.6727299751225612  0.6635708101969136  0.7265101029636996  1.0000
  C   C1        1.0  0.6377094551996139  0.1885263712123884  0.47187949095354587  1.0000
  C   C2        1.0  0.36229054477645084  0.6885263715736986  0.02812050946036888  1.0000
  C   C3        1.0  0.362290544491413  0.8114736284106697  0.5281205091002218  1.0000
  C   C4        1.0  0.637709454914576  0.3114736280493596  0.9718794905933988  1.0000
  C   C5        1.0  0.7712606570573866  0.9910503055393144  0.5264698188109941  1.0000
  C   C6        1.0  0.2287393431249537  0.49105030517800413  0.9735301808746277  1.0000
  C   C7        1.0  0.22873934340999158  0.008949694083743851  0.47353018123477497  1.0000
  C   C8        1.0  0.7712606573424243  0.5089496944450541  0.0264698191711411  1.0000
  C   C9        1.0  0.8528317410005252  0.09798585898404148  0.5623294478331183  1.0000
  C   C10       1.0  0.14716825945868017  0.5979858582457894  0.9376705526233492  1.0000
  C   C11       1.0  0.14716825946685302  0.9020141417385789  0.43767055221265067  1.0000
  C   C12       1.0  0.8528317402323468  0.4020141413772687  0.06232944743041853  1.0000
  C   C13       1.0  0.831000860406048  0.24853107799770605  0.5558454762235993  1.0000
  C   C14       1.0  0.16899913977629225  0.7485310772594541  0.9441545234620227  1.0000
  C   C15       1.0  0.1689991392849789  0.7514689227249143  0.44415452383016835  1.0000
  C   C16       1.0  0.8310008606910859  0.25146892236360413  0.05584547658374641  1.0000
  C   C17       1.0  0.72173683743307  0.2913409784787443  0.5095647370809465  1.0000
  C   C18       1.0  0.27826316274927027  0.7913409777404923  0.9904352626046755  1.0000
  C   C19       1.0  0.2782631622579569  0.7086590222438761  0.49043526297282114  1.0000
  C   C20       1.0  0.721736837441243  0.20865902188256588  0.00956473667024803  1.0000
  C   C21       1.0  0.6631854107583013  0.03938577473326441  0.4810262053073644  1.0000
  C   C22       1.0  0.3368145899941148  0.5393857750945745  0.01897379509855166  1.0000
  C   C23       1.0  0.3368145897090769  0.9606142248897939  0.5189737947384045  1.0000
  C   C24       1.0  0.6631854104732633  0.46061422452848355  0.9810262049472174  1.0000
  C   C25       1.0  0.6655621430265415  0.26568877737650404  0.23613589942928098  1.0000
  C   C26       1.0  0.3344378577258746  0.7656887777378142  0.26386410097663515  1.0000
  C   C27       1.0  0.3344378574408367  0.7343112222465541  0.763864100616488  1.0000
  C   C28       1.0  0.6655621427415036  0.23431122188524392  0.7361358990691339  1.0000
  C   C29       1.0  0.7676187689073799  0.1882479719600232  0.2783320696687596  1.0000
  C   C30       1.0  0.23238123156817106  0.6882479723213335  0.22166792996631085  1.0000
  C   C31       1.0  0.2323812315599982  0.8117520276630349  0.7216679303770094  1.0000
  C   C32       1.0  0.7676187686223421  0.31175202840128696  0.7783320693086127  1.0000
  C   C33       1.0  0.7687387154069142  0.4917402353749297  0.28133122155114976  1.0000
  C   C34       1.0  0.23126128456915068  0.9917402346366778  0.218668778862765  1.0000
  C   C35       1.0  0.23126128428411277  0.5082597653476906  0.7186687785026178  1.0000
  C   C36       1.0  0.7687387151218763  0.008259764986380402  0.7813312211910027  1.0000
  C   C37       1.0  0.8651155280932128  0.27235575614772234  0.3196338829976876  1.0000
  C   C38       1.0  0.134884471605987  0.7723557565090325  0.18036611664538157  1.0000
  C   C39       1.0  0.13488447132094916  0.7276442434753359  0.6803661162852346  1.0000
  C   C40       1.0  0.8651155288613911  0.22764424311402565  0.8196338834003873  1.0000
  C   C41       1.0  0.7687236908908714  0.032330356923196836  0.2755258669951197  1.0000
  C   C42       1.0  0.23127630880832836  0.5323303572845071  0.22447413264794946  1.0000
  C   C43       1.0  0.23127630880015548  0.9676696426998614  0.7244741330586479  1.0000
  C   C44       1.0  0.7687236908826985  0.46766964343811335  0.7755258674058182  1.0000
  C   C45       1.0  0.5711909056178678  0.03237207871122147  0.18885967161736877  1.0000
  C   C46       1.0  0.428809094358197  0.5323720779729695  0.311140328796546  1.0000
  C   C47       1.0  0.4288090940731591  0.9676279220113989  0.8111403284363988  1.0000
  C   C48       1.0  0.5711909061091812  0.46762792165008876  0.688859671249223  1.0000
  C   C49       1.0  0.6690904293460992  0.4216011464020858  0.23956924330822718  1.0000
  C   C50       1.0  0.3309095706299657  0.921601146763396  0.2604307571056876  1.0000
  C   C51       1.0  0.330909571121279  0.5783988532209723  0.7604307567375419  1.0000
  C   C52       1.0  0.6690904290610613  0.07839885285966217  0.7395692429480801  1.0000
  C   C53       1.0  0.567354678097415  0.1838564173043984  0.19213437887287166  1.0000
  C   C54       1.0  0.43264532187864974  0.6838564165661464  0.3078656215410431  1.0000
  C   C55       1.0  0.4326453215936119  0.816143583418222  0.807865621180896  1.0000
  C   C56       1.0  0.5673546778123773  0.3161435830569118  0.6921343785127246  1.0000
  C   C57       1.0  0.6720561808801908  0.9561093449558384  0.23083300176352198  1.0000
  C   C58       1.0  0.3279438195953602  0.45610934459452823  0.2691669978715485  1.0000
  C   C59       1.0  0.32794381958718727  0.04389065466721969  0.769166998282247  1.0000
  C   C60       1.0  0.672056180872018  0.5438906550285298  0.7308330021742205  1.0000
  N   N1        1.0  0.8659099325434523  0.4179080402517312  0.32026094390888243  1.0000
  N   N2        1.0  0.13409006793209882  0.9179080406130413  0.17973905572618812  1.0000
  N   N3        1.0  0.13409006792392592  0.582091959371327  0.6797390561368866  1.0000
  N   N4        1.0  0.8659099325352794  0.08209195901001677  0.820260944319581  1.0000
  F   F1        1.0  0.6936282205958917  0.4355323465460038  0.4999047434393939  1.0000
  F   F2        1.0  0.306371779380173  0.9355323458077518  9.525697452087448e-05  1.0000
  F   F3        1.0  0.3063717790951352  0.5644676541766166  0.5000952566143738  1.0000
  F   F4        1.0  0.6936282203108539  0.06446765381530638  0.9999047430792468  1.0000
  F   F5        1.0  0.5319573167737051  0.2323310972929923  0.42746861233341554  1.0000
  F   F6        1.0  0.46804268292549467  0.7323310976543025  0.07253138730965362  1.0000
  F   F7        1.0  0.4680426829173219  0.7676689023300659  0.5725313877203521  1.0000
  F   F8        1.0  0.5319573167655322  0.2676689030683179  0.927468612744114  1.0000
  F   F9        1.0  0.958782678022562  0.05241841814713845  0.6059983838067278  1.0000
  F   F10       1.0  0.04121732138342714  0.5524184185084486  0.8940016158868928  1.0000
  F   F11       1.0  0.04121732166846493  0.9475815814759198  0.39400161624703983  1.0000
  F   F12       1.0  0.9587826783075998  0.4475815822141717  0.1059983841668749  1.0000
  F   F13       1.0  0.5800608724594342  0.9416544090429089  0.445004391750081  1.0000
  F   F14       1.0  0.41993912801611694  0.44165440978116094  0.054995607884989535  1.0000
  F   F15       1.0  0.41993912800794403  0.05834559058014928  0.5549956082956881  1.0000
  F   F16       1.0  0.5800608724512611  0.5583455909414594  0.9450043921607795  1.0000
  I   I1        1.0  0.9601694542730234  0.4046510894482393  0.6124996071744571  1.0000
  I   I2        1.0  0.03983054618618187  0.9046510898095494  0.8875003932820102  1.0000
  I   I3        1.0  0.03983054619435481  0.5953489101748188  0.3875003928713119  1.0000
  I   I4        1.0  0.9601694542811963  0.09534890981350867  0.11249960676375864  1.0000
  I   I5        1.0  0.8076292937558258  0.7664958091096568  0.5419150933908413  1.0000
  I   I6        1.0  0.19237070565016337  0.2664958087483466  0.9580849063027794  1.0000
  I   I7        1.0  0.1923707059352012  0.23350419161296357  0.4580849066629264  1.0000
  I   I8        1.0  0.8076292940408636  0.7335041908747115  0.041915093750988404  1.0000
