data_image0
_chemical_formula_structural       H28C48N4F8I4
_chemical_formula_sum              "H28 C48 N4 F8 I4"
_cell_length_a       4.143892980719529
_cell_length_b       11.429733762313054
_cell_length_c       22.29143386017087
_cell_angle_alpha    90.0
_cell_angle_beta     93.81979343161267
_cell_angle_gamma    90.0

_space_group_name_H-M_alt    "P 1"
_space_group_IT_number       1

loop_
  _space_group_symop_operation_xyz
  'x, y, z'

loop_
  _atom_site_type_symbol
  _atom_site_label
  _atom_site_symmetry_multiplicity
  _atom_site_fract_x
  _atom_site_fract_y
  _atom_site_fract_z
  _atom_site_occupancy
  H   H1        1.0  0.14922402018109665  0.10204207501714993  0.7290276747491395  1.0000
  H   H2        1.0  0.3507759792157707  0.6020420749159641  0.7709723252261774  1.0000
  H   H3        1.0  0.8507759789320578  0.8979579256553893  0.27097232516987  1.0000
  H   H4        1.0  0.6492240223107856  0.3979579248816642  0.22902767469343005  1.0000
  H   H5        1.0  0.9173355783330337  0.6777657993699663  0.7009610285287201  1.0000
  H   H6        1.0  0.5826644215433988  0.17776579947115217  0.7990389713500934  1.0000
  H   H7        1.0  0.08266442319352242  0.322234200427662  0.29903897139088736  1.0000
  H   H8        1.0  0.4173355775697557  0.8222342003264762  0.20096102856891634  1.0000
  H   H9        1.0  0.7557200983177393  0.7847476167445597  0.7922833769574834  1.0000
  H   H10       1.0  0.7442799017166056  0.2847476168457456  0.7077166233709311  1.0000
  H   H11       1.0  0.24427990336672936  0.21525238305306854  0.20771662341172523  1.0000
  H   H12       1.0  0.25572009739654883  0.7152523829518828  0.2922833765480785  1.0000
  H   H13       1.0  0.9698547311782171  0.18875542465508824  0.6295315283122278  1.0000
  H   H14       1.0  0.5301452686982155  0.6887554245539024  0.8704684715665855  1.0000
  H   H15       1.0  0.030145267934937395  0.81124457514254  0.37046847160678187  1.0000
  H   H16       1.0  0.4698547304149389  0.3112445752437259  0.12953152835242407  1.0000
  H   H17       1.0  0.10948803525363598  0.09333306813474852  0.535054353509699  1.0000
  H   H18       1.0  0.3905119641432314  0.5933330680335627  0.9649456464656181  1.0000
  H   H19       1.0  0.8905119638595184  0.9066669325377908  0.4649456464093107  1.0000
  H   H20       1.0  0.6094880349699231  0.40666693176406565  0.035054353453391605  1.0000
  H   H21       1.0  0.7434414070645013  0.7564801901606341  0.5995336882701456  1.0000
  H   H22       1.0  0.7565585928119313  0.256480189386909  0.9004663116086677  1.0000
  H   H23       1.0  0.2565585920486531  0.24351981051190516  0.40046631164886404  1.0000
  H   H24       1.0  0.24344140630122316  0.7435198104107192  0.09953368831034187  1.0000
  H   H25       1.0  0.43724601509545674  0.9103424932178235  0.5381198944924274  1.0000
  H   H26       1.0  0.06275398445932313  0.4103424924440983  0.9618801059324908  1.0000
  H   H27       1.0  0.5627539865890121  0.08965750745471583  0.4618801058767813  1.0000
  H   H28       1.0  0.9372460148117439  0.58965750735353  0.038119894436120016  1.0000
  C   C1        1.0  0.33399576485097243  0.5895280660182577  0.5254165453501859  1.0000
  C   C2        1.0  0.16600423454589497  0.0895280661194436  0.9745834546251312  1.0000
  C   C3        1.0  0.666004234262182  0.4104719337793706  0.4745834545688238  1.0000
  C   C4        1.0  0.8339957645672595  0.9104719336781846  0.0254165452938785  1.0000
  C   C5        1.0  0.5471030205344533  0.39690763270079277  0.53110976091308  1.0000
  C   C6        1.0  0.9528969793419794  0.8969076325996068  0.9688902389657335  1.0000
  C   C7        1.0  0.452896980992103  0.6030923679717465  0.4688902390065274  1.0000
  C   C8        1.0  0.04710301977117513  0.10309236807293241  0.03110976095327632  1.0000
  C   C9        1.0  0.38013204438156356  0.4864545479032054  0.5581014380497231  1.0000
  C   C10       1.0  0.1198679550153038  0.9864545478020195  0.9418985619255941  1.0000
  C   C11       1.0  0.6198679547315908  0.5135454518944229  0.4418985618692866  1.0000
  C   C12       1.0  0.8801320440978507  0.013545451995608745  0.05810143799341573  1.0000
  C   C13       1.0  0.4026746263385653  0.9585077839803434  0.6901432528017036  1.0000
  C   C14       1.0  0.09732537305830193  0.4585077840815293  0.8098567471736132  1.0000
  C   C15       1.0  0.5973253727745891  0.041492215817284815  0.30985674711730604  1.0000
  C   C16       1.0  0.9026746260548524  0.541492215716099  0.19014325274539629  1.0000
  C   C17       1.0  0.21407231320206535  0.062030597977508775  0.6870333686811082  1.0000
  C   C18       1.0  0.28592768619480197  0.5620305978763229  0.8129666312942087  1.0000
  C   C19       1.0  0.785927685911089  0.9379694018201195  0.31296663123790136  1.0000
  C   C20       1.0  0.714072313076265  0.43796940192130535  0.18703336907440213  1.0000
  C   C21       1.0  0.7717850012487022  0.7567913461397634  0.69609564547638  1.0000
  C   C22       1.0  0.728214998785643  0.2567913453660383  0.8039043548520345  1.0000
  C   C23       1.0  0.2282149980223649  0.24320865453277585  0.30390435489223083  1.0000
  C   C24       1.0  0.2717850003275114  0.74320865443159  0.19609564506697508  1.0000
  C   C25       1.0  0.6792390587507136  0.8165950969719851  0.7474045185404575  1.0000
  C   C26       1.0  0.8207609411257191  0.3165950970731709  0.7525954813383557  1.0000
  C   C27       1.0  0.32076094036244085  0.1834049037005543  0.252595481378552  1.0000
  C   C28       1.0  0.17923905798743542  0.6834049035993685  0.24740451858065393  1.0000
  C   C29       1.0  0.11367811120945617  0.10906349140959606  0.6319669952718401  1.0000
  C   C30       1.0  0.3863218881874112  0.6090634921833212  0.868033004703477  1.0000
  C   C31       1.0  0.8863218880616107  0.8909365083880322  0.3680330050967708  1.0000
  C   C32       1.0  0.6136781109257432  0.39093650848921807  0.13196699521553273  1.0000
  C   C33       1.0  0.48564485628068566  0.903311222702583  0.6354130027797306  1.0000
  C   C34       1.0  0.014355145529583465  0.4033112228037689  0.8645869971961843  1.0000
  C   C35       1.0  0.514355145403783  0.09668877796995629  0.36458699758947805  1.0000
  C   C36       1.0  0.9856448559969728  0.5966887778687704  0.13541300272342327  1.0000
  C   C37       1.0  0.19392013483938567  0.054568632390767056  0.5779287133907536  1.0000
  C   C38       1.0  0.30607986455748165  0.5545686322895812  0.9220712865845634  1.0000
  C   C39       1.0  0.8060798642737688  0.9454313674068612  0.4220712865282561  1.0000
  C   C40       1.0  0.6939201345556728  0.44543136750804707  0.07792871333444623  1.0000
  C   C41       1.0  0.6747968480681845  0.8003330558899026  0.6401518728141442  1.0000
  C   C42       1.0  0.825203151808248  0.3003330559910884  0.8598481270646693  1.0000
  C   C43       1.0  0.3252031510449699  0.19966694390772577  0.3598481271048655  1.0000
  C   C44       1.0  0.17479684971830825  0.6996669438065398  0.14015187285493821  1.0000
  C   C45       1.0  0.37546442558822996  0.9535061731651822  0.5795052204580471  1.0000
  C   C46       1.0  0.12453557380863743  0.45350617326636794  0.9204947795172701  1.0000
  C   C47       1.0  0.6245355735249245  0.04649382663244618  0.42049477946096264  1.0000
  C   C48       1.0  0.8754644254624295  0.5464938265312603  0.07950522085134093  1.0000
  N   N1        1.0  0.5018422661541504  0.9131370115035702  0.7450001735258569  1.0000
  N   N2        1.0  0.9981577338801946  0.413137011604756  0.7549998268025577  1.0000
  N   N3        1.0  0.49815773553031834  0.08686298829405814  0.25499982684335176  1.0000
  N   N4        1.0  0.0018422653908723148  0.5868629881928723  0.24500017356605316  1.0000
  F   F1        1.0  0.1677642932318737  0.680213835394415  0.5482310572039495  1.0000
  F   F2        1.0  0.3322357085783955  0.18021383462068985  0.9517689427719654  1.0000
  F   F3        1.0  0.8322357082946825  0.31978616527812426  0.451768942715658  1.0000
  F   F4        1.0  0.6677642929481609  0.8197861651769384  0.04823105714764208  1.0000
  F   F5        1.0  0.5979542763015687  0.2929360525474237  0.5598257845473289  1.0000
  F   F6        1.0  0.9020457235748638  0.7929360524462378  0.9401742153314844  1.0000
  F   F7        1.0  0.4020457252249875  0.7070639472502046  0.4401742153722785  1.0000
  F   F8        1.0  0.09795427553829061  0.20706394735139041  0.059825784587525195  1.0000
  I   I1        1.0  0.21512706860564576  0.4660373899139738  0.6454458927567018  1.0000
  I   I2        1.0  0.2848729307912216  0.966037389812788  0.8545541072186151  1.0000
  I   I3        1.0  0.7848729305075087  0.5339626098836545  0.3545541071623078  1.0000
  I   I4        1.0  0.7151270684798454  0.03396260998484033  0.14544589314999568  1.0000
