data_image0
_chemical_formula_structural       H20C20N4F8I4
_chemical_formula_sum              "H20 C20 N4 F8 I4"
_cell_length_a       6.044691429958073
_cell_length_b       9.310358407801665
_cell_length_c       12.149097452041902
_cell_angle_alpha    103.41941902596064
_cell_angle_beta     96.56726356858687
_cell_angle_gamma    95.89494828610873

_space_group_name_H-M_alt    "P 1"
_space_group_IT_number       1

loop_
  _space_group_symop_operation_xyz
  'x, y, z'

loop_
  _atom_site_type_symbol
  _atom_site_label
  _atom_site_symmetry_multiplicity
  _atom_site_fract_x
  _atom_site_fract_y
  _atom_site_fract_z
  _atom_site_occupancy
  H   H1        1.0  0.2579967692207837  0.5655262947843613  0.8734750464302884  1.0000
  H   H2        1.0  0.7420032314604281  0.43447370462303286  0.12652495341828468  1.0000
  H   H3        1.0  0.24796995237301286  0.4043510833589544  0.9294277308016446  1.0000
  H   H4        1.0  0.7520300470597643  0.5956489174033595  0.07057226989873427  1.0000
  H   H5        1.0  0.8563245820294554  0.28587882276550186  0.9534957291710917  1.0000
  H   H6        1.0  0.14367541716773247  0.7141211777208843  0.04650427067431354  1.0000
  H   H7        1.0  0.6240548070053634  0.37628848442459345  0.9144817448781503  1.0000
  H   H8        1.0  0.3759451936758483  0.6237115149828006  0.08551825497042291  1.0000
  H   H9        1.0  0.9128907876138388  0.4028949479104872  0.7988909332638245  1.0000
  H   H10       1.0  0.08710921158334912  0.5971050525758992  0.20110906658158073  1.0000
  H   H11       1.0  0.7477921169531159  0.6825330730938746  0.476017917757626  1.0000
  H   H12       1.0  0.2522078820731281  0.3174669263129852  0.5239820820885738  1.0000
  H   H13       1.0  0.7264456938794265  0.5580248813132082  0.5670470133706232  1.0000
  H   H14       1.0  0.2735543051468173  0.4419751180936516  0.43295298647557656  1.0000
  H   H15       1.0  0.651627083366266  0.4146920237747892  0.3663404227489981  1.0000
  H   H16       1.0  0.3483729173149458  0.585307975632605  0.6336595770995751  1.0000
  H   H17       1.0  0.9078626319822636  0.5012142962589331  0.3371715788482195  1.0000
  H   H18       1.0  0.09213736886989193  0.4987857042279876  0.6628284209995592  1.0000
  H   H19       1.0  0.056336665934181726  0.7399917517181615  0.6268669616526487  1.0000
  H   H20       1.0  0.9436633347470299  0.26000824768923275  0.3731330381959246  1.0000
  C   C1        1.0  0.5926776625988373  0.8885105833650305  0.7915060580196135  1.0000
  C   C2        1.0  0.4073223368339399  0.11148941739728332  0.20849394268076557  1.0000
  C   C3        1.0  0.5853688016655663  0.08847967254172764  0.6901935789908369  1.0000
  C   C4        1.0  0.41463119736067766  0.9115203268651322  0.30980642085536286  1.0000
  C   C5        1.0  0.6743208945692561  0.9660987471970499  0.7161294743374252  1.0000
  C   C6        1.0  0.32567910462793187  0.03390125328933641  0.28387052550798  1.0000
  C   C7        1.0  0.4103766476286826  0.9383553077900271  0.8424936626239089  1.0000
  C   C8        1.0  0.5896233532881183  0.061644691893294766  0.1575063380796379  1.0000
  C   C9        1.0  0.4016540361215998  0.13229944822602158  0.7422877110873128  1.0000
  C   C10       1.0  0.598345964730556  0.867700552260899  0.2577122887604658  1.0000
  C   C11       1.0  0.3120051744473127  0.05856798092104884  0.8180805035042548  1.0000
  C   C12       1.0  0.6879948264694883  0.9414320187622729  0.18191949719929204  1.0000
  C   C13       1.0  0.17058826995263485  0.5064567735279841  0.927742589523168  1.0000
  C   C14       1.0  0.8294117292445531  0.49354322695840214  0.07225741032223733  1.0000
  C   C15       1.0  0.8019999647348277  0.3950218966390551  0.9514628058212754  1.0000
  C   C16       1.0  0.19800003446236017  0.6049781038473311  0.04853719402412984  1.0000
  C   C17       1.0  0.8257365551680861  0.593968329799472  0.5048513862982794  1.0000
  C   C18       1.0  0.17426344385815778  0.40603166960738774  0.49514861354792034  1.0000
  C   C19       1.0  0.8252133940570254  0.46250892887210193  0.40373473148031436  1.0000
  C   C20       1.0  0.17478660679513036  0.5374910716148187  0.5962652683674643  1.0000
  N   N1        1.0  0.9312339975379903  0.4696378270207875  0.8801908066755967  1.0000
  N   N2        1.0  0.06876600148825364  0.5303621723860723  0.11980919317060315  1.0000
  N   N3        1.0  0.05815002377054745  0.6523723887504334  0.558637727651336  1.0000
  N   N4        1.0  0.9418499770816083  0.3476276117364874  0.44136227219644264  1.0000
  F   F1        1.0  0.325385573899306  0.8715992374100316  0.9195422266317308  1.0000
  F   F2        1.0  0.6746144269528497  0.12840076307688905  0.08045777321604794  1.0000
  F   F3        1.0  0.13456715250917511  0.1045954446362518  0.8686574790431268  1.0000
  F   F4        1.0  0.8654328465170688  0.8954045547706079  0.131342520803073  1.0000
  F   F5        1.0  0.30629308726072135  0.2514240958457799  0.7219537451597677  1.0000
  F   F6        1.0  0.6937069134204905  0.7485759035616142  0.2780462546888054  1.0000
  F   F7        1.0  0.8534021598426792  0.9206567488125144  0.664624103632586  1.0000
  F   F8        1.0  0.14659784083853256  0.07934325059487987  0.3353758962159873  1.0000
  I   I1        1.0  0.7322559943270734  0.20732442021013822  0.5786772288817221  1.0000
  I   I2        1.0  0.2677440046991703  0.7926755791967215  0.4213227709644777  1.0000
  I   I3        1.0  0.743086435681616  0.7049582878853239  0.8335336776969227  1.0000
  I   I4        1.0  0.2569135633446279  0.29504171152153585  0.16646632214927712  1.0000
