data_image0
_chemical_formula_structural       H24C56N8F16I8
_chemical_formula_sum              "H24 C56 N8 F16 I8"
_cell_length_a       11.832761015847407
_cell_length_b       6.156187332272238
_cell_length_c       20.92191321263903
_cell_angle_alpha    90.0
_cell_angle_beta     100.55468286398427
_cell_angle_gamma    90.0

_space_group_name_H-M_alt    "P 1"
_space_group_IT_number       1

loop_
  _space_group_symop_operation_xyz
  'x, y, z'

loop_
  _atom_site_type_symbol
  _atom_site_label
  _atom_site_symmetry_multiplicity
  _atom_site_fract_x
  _atom_site_fract_y
  _atom_site_fract_z
  _atom_site_occupancy
  H   H1        1.0  0.6863345948631666  0.8731039050457386  0.2285299968663754  1.0000
  H   H2        1.0  0.8136654047754651  0.37310390604247884  0.27147000300353025  1.0000
  H   H3        1.0  0.3136654046709917  0.12689609458516296  0.7714700030565752  1.0000
  H   H4        1.0  0.1863345947586932  0.6268960935884228  0.7285299969194203  1.0000
  H   H5        1.0  0.6371886297441157  0.2762572950118913  0.35628668217115306  1.0000
  H   H6        1.0  0.862811369894516  0.7762572940151511  0.14371331769875262  1.0000
  H   H7        1.0  0.3628113697900427  0.7237427046190104  0.6437133177517975  1.0000
  H   H8        1.0  0.1371886304842581  0.2237427056157505  0.8562866822226809  1.0000
  H   H9        1.0  0.5177747001798985  0.8686779302452052  0.1361239730848955  1.0000
  H   H10       1.0  0.9822252994587334  0.36867792961756346  0.3638760267850102  1.0000
  H   H11       1.0  0.48222529935425995  0.13132206938569638  0.8638760268380552  1.0000
  H   H12       1.0  0.01777470007542498  0.6313220700133382  0.6361239731379403  1.0000
  H   H13       1.0  0.30721409552550677  0.25722027523414137  0.16784399491404578  1.0000
  H   H14       1.0  0.19278590424157244  0.7572202758617833  0.3321560050474295  1.0000
  H   H15       1.0  0.6927859040086516  0.7427797243967602  0.8321560050089047  1.0000
  H   H16       1.0  0.8072140952925859  0.2427797253935004  0.6678439948755212  1.0000
  H   H17       1.0  0.32823540350714486  0.9704954231460663  0.2530824390951149  1.0000
  H   H18       1.0  0.1717645962599343  0.47049542251842463  0.24691756086636035  1.0000
  H   H19       1.0  0.6717645968716294  0.029504578109217246  0.7469175608263185  1.0000
  H   H20       1.0  0.828235403274224  0.5295045771124771  0.7530824390565901  1.0000
  H   H21       1.0  0.49151577516744854  0.9820208115350859  0.34685809961578357  1.0000
  H   H22       1.0  0.008484224599630597  0.48202081090744414  0.15314190034569172  1.0000
  H   H23       1.0  0.5084842243667098  0.017979188095815626  0.653141900307167  1.0000
  H   H24       1.0  0.9915157757791435  0.5179791887234575  0.8468580995757418  1.0000
  C   C1        1.0  0.5250112522047534  0.6947212875702773  0.9732900349024356  1.0000
  C   C2        1.0  0.9749887479410998  0.19472128694263544  0.5267099649804732  1.0000
  C   C3        1.0  0.474988747329405  0.30527871368500636  0.026709965020515015  1.0000
  C   C4        1.0  0.02501125243767425  0.8052787126882661  0.4732900349409602  1.0000
  C   C5        1.0  0.6063270678154915  0.5951807218068537  0.020877943195014754  1.0000
  C   C6        1.0  0.893672932667756  0.09518072117921185  0.4791220566733738  1.0000
  C   C7        1.0  0.3936729325632827  0.4048192778240479  0.9791220567264186  1.0000
  C   C8        1.0  0.10632706771101808  0.9048192784516897  0.5208779432480597  1.0000
  C   C9        1.0  0.5826923837668609  0.39783620085128585  0.04838553085443827  1.0000
  C   C10       1.0  0.9173076167163867  0.8978361998545457  0.4516144690139503  1.0000
  C   C11       1.0  0.41730761661191323  0.6021638004039978  0.9516144690669952  1.0000
  C   C12       1.0  0.08269238366238749  0.10216379977635598  0.5483855309074832  1.0000
  C   C13       1.0  0.0966021012213362  0.891467066187275  0.036719688137523285  1.0000
  C   C14       1.0  0.40339789854574304  0.3914670655596332  0.46328031182395196  1.0000
  C   C15       1.0  0.903397899157438  0.10853293344362659  0.9632803117839103  1.0000
  C   C16       1.0  0.5966021009884154  0.6085329340712684  0.5367196880989985  1.0000
  C   C17       1.0  0.05881364068202321  0.09045177963979728  0.05670220908891373  1.0000
  C   C18       1.0  0.44118635908505593  0.5904517802674392  0.4432977908725615  1.0000
  C   C19       1.0  0.941186359696751  0.9095482199911042  0.9432977908325196  1.0000
  C   C20       1.0  0.5588136404491023  0.40954821936346253  0.556702209050389  1.0000
  C   C21       1.0  0.03553644659060005  0.8026794594270608  0.9793373009559971  1.0000
  C   C22       1.0  0.4644635528390849  0.30267945879941893  0.5206626990199983  1.0000
  C   C23       1.0  0.9644635529435585  0.19732054020384085  0.020662698966953403  1.0000
  C   C24       1.0  0.5355364466950735  0.6973205408314826  0.4793373009029523  1.0000
  C   C25       1.0  0.6217521755129523  0.7448005222264144  0.22531708542335882  1.0000
  C   C26       1.0  0.8782478241256795  0.24480052159877252  0.27468291444654686  1.0000
  C   C27       1.0  0.378247824021206  0.2551994790288693  0.7746829144995918  1.0000
  C   C28       1.0  0.12175217625309477  0.7551994780321292  0.7253170854748867  1.0000
  C   C29       1.0  0.5646026368588914  0.27197380450442055  0.3157787906954892  1.0000
  C   C30       1.0  0.9353973636243562  0.7719738051320623  0.18422120917289941  1.0000
  C   C31       1.0  0.4353973635198828  0.728026195126481  0.6842212092259444  1.0000
  C   C32       1.0  0.06460263675441803  0.22802619449883926  0.8157787907485341  1.0000
  C   C33       1.0  0.5271959624593955  0.7417523856140618  0.17310349894830665  1.0000
  C   C34       1.0  0.9728040371792364  0.241752386610802  0.326896500921599  1.0000
  C   C35       1.0  0.4728040370747629  0.2582476140168398  0.826896500974644  1.0000
  C   C36       1.0  0.027195963199537928  0.7582476130200997  0.6731034989998346  1.0000
  C   C37       1.0  0.3776187188412925  0.26129344238234525  0.209517443180715  1.0000
  C   C38       1.0  0.12238128092578666  0.7612934413856051  0.2904825567807603  1.0000
  C   C39       1.0  0.6223812806928659  0.7387065572485564  0.7904825567422354  1.0000
  C   C40       1.0  0.8776187194529875  0.23870655824529657  0.7095174431406732  1.0000
  C   C41       1.0  0.45887637814972443  0.4319336785059371  0.21426465646566964  1.0000
  C   C42       1.0  0.04112362246197058  0.931933677509197  0.28573534349428853  1.0000
  C   C43       1.0  0.5411236222290497  0.5680663227493464  0.7857353434557638  1.0000
  C   C44       1.0  0.9588763779168037  0.06806632212170469  0.7142646564271449  1.0000
  C   C45       1.0  0.3903994333014808  0.10275604783561935  0.2568001291429065  1.0000
  C   C46       1.0  0.10960056731021427  0.6027560484632611  0.24319987081705172  1.0000
  C   C47       1.0  0.6096005670772935  0.8972439517952824  0.743199870778527  1.0000
  C   C48       1.0  0.8903994330685598  0.39724395279202246  0.7568001291043818  1.0000
  C   C49       1.0  0.5540487134550471  0.43672302431506105  0.2678768368810453  1.0000
  C   C50       1.0  0.9459512861835847  0.9367230233183209  0.2321231629888604  1.0000
  C   C51       1.0  0.4459512860791112  0.5632769753158405  0.7321231630419053  1.0000
  C   C52       1.0  0.05404871335057376  0.06327697631258074  0.7678768369340903  1.0000
  C   C53       1.0  0.48368657821806427  0.10853700252058086  0.31003788484106237  1.0000
  C   C54       1.0  0.01631342170911768  0.6085370031482227  0.18996211560660445  1.0000
  C   C55       1.0  0.516313421476197  0.8914629971103207  0.6899621155680798  1.0000
  C   C56       1.0  0.9836865779851435  0.39146299648267896  0.8100378848025377  1.0000
  N   N1        1.0  0.44690316601855457  0.5904232138852762  0.1679969500707341  1.0000
  N   N2        1.0  0.05309683374852456  0.09042321325763439  0.3320030498907412  1.0000
  N   N3        1.0  0.5530968335156038  0.4095767857456254  0.8320030498522165  1.0000
  N   N4        1.0  0.9469031666302495  0.9095767863732672  0.6679969500306923  1.0000
  N   N5        1.0  0.6340737266720556  0.5981679294741051  0.2722163374684489  1.0000
  N   N6        1.0  0.8659262729665761  0.09816792884646333  0.2277836624014567  1.0000
  N   N7        1.0  0.36592627370671843  0.40183207015679645  0.7277836624529845  1.0000
  N   N8        1.0  0.13407372656758224  0.9018320707844384  0.7722163375214938  1.0000
  F   F1        1.0  0.5533210954504233  0.8853143245704893  0.9476652543605046  1.0000
  F   F2        1.0  0.9466789046954303  0.38531432556722955  0.5523347455224042  1.0000
  F   F3        1.0  0.446678904928351  0.11468567506041223  0.05233474556092895  1.0000
  F   F4        1.0  0.05332109483872819  0.614685674063672  0.4476652544005464  1.0000
  F   F5        1.0  0.7094096794604114  0.6941807630832207  0.039989372900211484  1.0000
  F   F6        1.0  0.7905903203383232  0.194180764079961  0.4600106274558857  1.0000
  F   F7        1.0  0.2905903202338498  0.30581923654768084  0.9600106275089305  1.0000
  F   F8        1.0  0.20940968004045102  0.8058192355509406  0.5399893724655479  1.0000
  F   F9        1.0  0.06762924180603992  0.6087957071015041  0.9575957847016004  1.0000
  F   F10       1.0  0.4323707576236451  0.10879570647386232  0.5424042152743951  1.0000
  F   F11       1.0  0.9323707577281184  0.3912042925293975  0.04240421522135014  1.0000
  F   F12       1.0  0.5676292419105133  0.8912042931570393  0.45759578464855555  1.0000
  F   F13       1.0  0.11417996640099938  0.18484003955415687  0.11258943053341748  1.0000
  F   F14       1.0  0.38582003336607984  0.6848400401817987  0.38741056942805785  1.0000
  F   F15       1.0  0.885820033133159  0.8151599600767448  0.8874105693895331  1.0000
  F   F16       1.0  0.6141799661680786  0.31515995944910297  0.6125894304948928  1.0000
  I   I1        1.0  0.7039205586305414  0.24798451502555557  0.12118322300245926  1.0000
  I   I2        1.0  0.7960794410080905  0.7479845140288154  0.3788167768674464  1.0000
  I   I3        1.0  0.29607944090361704  0.7520154862297281  0.8788167769204913  1.0000
  I   I4        1.0  0.20392055937068376  0.2520154856020862  0.6211832230539871  1.0000
  I   I5        1.0  0.24191310664418378  0.7359384007451528  0.090042582044377  1.0000
  I   I6        1.0  0.2580868931228954  0.23593840174189298  0.40995741791709833  1.0000
  I   I7        1.0  0.7580868928899746  0.2640615988857488  0.9099574178785736  1.0000
  I   I8        1.0  0.7419131064112628  0.7640615978890086  0.5900425820058524  1.0000
