data_image0
_chemical_formula_structural       H54C80O2Cl2
_chemical_formula_sum              "H54 C80 O2 Cl2"
_cell_length_a       10.470372599854622
_cell_length_b       11.81655793807295
_cell_length_c       12.512493034517602
_cell_angle_alpha    65.01127589769315
_cell_angle_beta     83.97237630921886
_cell_angle_gamma    72.42078540057236

_space_group_name_H-M_alt    "P 1"
_space_group_IT_number       1

loop_
  _space_group_symop_operation_xyz
  'x, y, z'

loop_
  _atom_site_type_symbol
  _atom_site_label
  _atom_site_symmetry_multiplicity
  _atom_site_fract_x
  _atom_site_fract_y
  _atom_site_fract_z
  _atom_site_occupancy
  H   H1        1.0  0.04903448511229252  0.5881170525423733  0.13292169704465862  1.0000
  H   H2        1.0  0.9509655149730645  0.411882947619297  0.8670783034798462  1.0000
  H   H3        1.0  0.7689797068465607  0.9874450329738043  0.1728447743806467  1.0000
  H   H4        1.0  0.23102029320721423  0.01255496758755402  0.8271552252618364  1.0000
  H   H5        1.0  0.5748579687248822  0.17552395603965285  0.11654902946275827  1.0000
  H   H6        1.0  0.4251420306821487  0.8244760436267436  0.8834509701871311  1.0000
  H   H7        1.0  0.35878357426397917  0.329047900152968  0.9506554064267443  1.0000
  H   H8        1.0  0.6412164257897958  0.6709521004083903  0.04934459321573878  1.0000
  H   H9        1.0  0.2512683772968582  0.34912544447953364  0.7786328659871353  1.0000
  H   H10       1.0  0.7487316227884987  0.6508745556821366  0.22136713453736948  1.0000
  H   H11       1.0  0.26130236579274657  0.22737938171732525  0.6246027250389199  1.0000
  H   H12       1.0  0.7386976333074668  0.7726206188376203  0.37539727460913996  1.0000
  H   H13       1.0  0.3826649675124193  0.04150166068728127  0.5828908868123769  1.0000
  H   H14       1.0  0.6173350315877938  0.9584983398676645  0.41710911283568286  1.0000
  H   H15       1.0  0.6026908939588614  0.8145821633761402  0.6549651199181077  1.0000
  H   H16       1.0  0.3973091060949136  0.18541783718521804  0.34503487972437547  1.0000
  H   H17       1.0  0.5764488940113598  0.4186765570481023  0.7302839437429043  1.0000
  H   H18       1.0  0.42355110638081467  0.5813234422250187  0.2697160567834301  1.0000
  H   H19       1.0  0.8775567580880909  0.5450128440388101  0.4870248375873314  1.0000
  H   H20       1.0  0.12244324227250161  0.4549871556339991  0.5129751620569812  1.0000
  H   H21       1.0  0.6771828002974433  0.454118411291378  0.9631108236638555  1.0000
  H   H22       1.0  0.3228171997563316  0.5458815892699804  0.036889175978627606  1.0000
  H   H23       1.0  0.5301323162941514  0.4654288981050412  0.896540422214191  1.0000
  H   H24       1.0  0.4698676840664413  0.5345711015677678  0.10345957743012174  1.0000
  H   H25       1.0  0.5612854995866653  0.6082948247777041  0.888613157054336  1.0000
  H   H26       1.0  0.43871450046710947  0.391705175783654  0.11138684258814714  1.0000
  H   H27       1.0  0.7699483436581038  0.3260222267444781  0.5340313992796449  1.0000
  H   H28       1.0  0.23005165639567113  0.6739777738168802  0.4659686003628382  1.0000
  H   H29       1.0  0.6790445472854103  0.48080907080969665  0.43230299323578253  1.0000
  H   H30       1.0  0.3209554527683646  0.5191909297516616  0.5676970064067006  1.0000
  H   H31       1.0  0.5971046119801224  0.3864273195915609  0.554358345676293  1.0000
  H   H32       1.0  0.4028953871516729  0.6135726805636967  0.4456416548537884  1.0000
  H   H33       1.0  0.003009265852400707  0.6655359740337446  0.5138682531991396  1.0000
  H   H34       1.0  0.9969907332478124  0.33446402652120105  0.4861317464489201  1.0000
  H   H35       1.0  0.049897021732037895  0.6056119080185349  0.664796088554906  1.0000
  H   H36       1.0  0.950102978353319  0.3943880921431353  0.3352039119695988  1.0000
  H   H37       1.0  0.9328109917973  0.7590984868952607  0.5963707333330371  1.0000
  H   H38       1.0  0.06718900730291325  0.24090151365968493  0.4036292663150226  1.0000
  H   H39       1.0  0.12008916470746112  0.7882617430585563  0.09587700586795318  1.0000
  H   H40       1.0  0.8799108356531313  0.21173825661425266  0.9041229937763595  1.0000
  H   H41       1.0  0.07816983635702927  0.7384007256443073  0.2484613908878953  1.0000
  H   H42       1.0  0.9218301640351453  0.26159927362881374  0.7515386096384391  1.0000
  H   H43       1.0  0.009567113634421708  0.9043922294276298  0.1455006814660526  1.0000
  H   H44       1.0  0.9904328864509352  0.0956077707340404  0.8544993190584522  1.0000
  H   H45       1.0  0.7729362265370686  0.016572109749903315  0.5060680749589933  1.0000
  H   H46       1.0  0.22706377354828827  0.9834278904117669  0.49393192556551163  1.0000
  H   H47       1.0  0.5977507336566769  0.22685790448038026  0.4664728235638179  1.0000
  H   H48       1.0  0.4022492667354977  0.7731420947927408  0.5335271769625165  1.0000
  H   H49       1.0  0.6016358795928197  0.42210135422736117  0.2821022654453784  1.0000
  H   H50       1.0  0.3983641195389755  0.5778986459278965  0.7178977350847032  1.0000
  H   H51       1.0  0.7737698532238871  0.4039207363749533  0.13191920264930349  1.0000
  H   H52       1.0  0.2262301471367054  0.5960792632978557  0.8680807969950092  1.0000
  H   H53       1.0  0.9387563212482491  0.18953507252196491  0.16566115186840014  1.0000
  H   H54       1.0  0.06124367914392529  0.8104649267511561  0.8343388486579342  1.0000
  C   C1        1.0  0.02637103671641894  0.5514532536692595  0.07332520553218223  1.0000
  C   C2        1.0  0.9736289624153763  0.44854674648599824  0.9266747949978994  1.0000
  C   C3        1.0  0.9342300155742042  0.6339997761169459  0.9823588184490242  1.0000
  C   C4        1.0  0.06576998481797049  0.3660002231561751  0.017641182077310275  1.0000
  C   C5        1.0  0.8679232681442377  0.771345133663528  0.9572077240274693  1.0000
  C   C6        1.0  0.13207673194111924  0.2286548664981422  0.04279227649703551  1.0000
  C   C7        1.0  0.8666645301327557  0.8347919294472703  0.032168004096673315  1.0000
  C   C8        1.0  0.1333354699526012  0.16520807071440008  0.9678319964278315  1.0000
  C   C9        1.0  0.7868499342042535  0.9678125325694422  0.004315131671242783  1.0000
  C   C10       1.0  0.213150066156339  0.0321874671033668  0.9956848679730699  1.0000
  C   C11       1.0  0.7307657225562774  0.031129852468285358  0.08234673826350161  1.0000
  C   C12       1.0  0.269234277804315  0.9688701472045238  0.9176532613808112  1.0000
  C   C13       1.0  0.6189724633918116  0.14006010724259835  0.04949823259709171  1.0000
  C   C14       1.0  0.3810275357399836  0.8599398929126594  0.9505017679329899  1.0000
  C   C15       1.0  0.5532632168178163  0.1984288163629403  0.9349938551316742  1.0000
  C   C16       1.0  0.44673678354277624  0.8015711833098687  0.06500614451263834  1.0000
  C   C17       1.0  0.41864678222785323  0.2813556167612041  0.8964027290703278  1.0000
  C   C18       1.0  0.5813532178259219  0.7186443838001542  0.10359727057215523  1.0000
  C   C19       1.0  0.3565751819018237  0.2930438466717898  0.7973855948018702  1.0000
  C   C20       1.0  0.6434248181519512  0.7069561538895683  0.2026144048406128  1.0000
  C   C21       1.0  0.42227940542598225  0.22099948515702478  0.7283062521907658  1.0000
  C   C22       1.0  0.5777205949661923  0.7790005141160963  0.2716937483355686  1.0000
  C   C23       1.0  0.3656448068954902  0.1803241455282342  0.6546640785885329  1.0000
  C   C24       1.0  0.6343551934651023  0.8196758541445749  0.3453359210557797  1.0000
  C   C25       1.0  0.4354915239720613  0.07365715070388061  0.630326027355558  1.0000
  C   C26       1.0  0.5645084761132956  0.9263428494577897  0.36967397316894685  1.0000
  C   C27       1.0  0.5696483878749308  0.996183482597355  0.6770590550764257  1.0000
  C   C28       1.0  0.4303516121788441  0.0038165179640034345  0.3229409445660573  1.0000
  C   C29       1.0  0.6389608814473052  0.8637369971350524  0.69698604256336  1.0000
  C   C30       1.0  0.3610391189448695  0.1362630021380686  0.30301395796297437  1.0000
  C   C31       1.0  0.7468985492481122  0.7881994290091158  0.7803742043905125  1.0000
  C   C32       1.0  0.25310144985210103  0.21180057154582993  0.21962579525754727  1.0000
  C   C33       1.0  0.811958775969858  0.652904422622555  0.8096617508730747  1.0000
  C   C34       1.0  0.18804122439073448  0.3470955770502539  0.19033824877123803  1.0000
  C   C35       1.0  0.9050639338913447  0.581018837069205  0.9042553214376254  1.0000
  C   C36       1.0  0.09493606616243022  0.4189811634921532  0.09574467820485762  1.0000
  C   C37       1.0  0.7905771431263844  0.8441099580462915  0.8479720624469026  1.0000
  C   C38       1.0  0.20942285723420798  0.15589004162651765  0.15202793719741  1.0000
  C   C39       1.0  0.7379432513766784  0.9763623338345788  0.8125530031496997  1.0000
  C   C40       1.0  0.2620567486770966  0.023637666726779385  0.18744699649278349  1.0000
  C   C41       1.0  0.734181883377303  0.03676558681336569  0.8896844464737376  1.0000
  C   C42       1.0  0.26581811572291025  0.96323441374158  0.11031555317432216  1.0000
  C   C43       1.0  0.6218730291195343  0.14898988249399103  0.855539563433684  1.0000
  C   C44       1.0  0.3781269712726403  0.8510101167791301  0.14446043709265044  1.0000
  C   C45       1.0  0.557980633343115  0.15887808305247508  0.7556977162423514  1.0000
  C   C46       1.0  0.4420193657570981  0.8411219175024707  0.24430228340570845  1.0000
  C   C47       1.0  0.6294901447495003  0.051195340405130345  0.729769122213492  1.0000
  C   C48       1.0  0.37050985435071304  0.9488046601498153  0.2702308774345677  1.0000
  C   C49       1.0  0.7816260528075903  0.5903353756197288  0.7381115196261107  1.0000
  C   C50       1.0  0.21837394727776674  0.40966462454194136  0.26188848089839417  1.0000
  C   C51       1.0  0.6818704799572012  0.525137764411955  0.7734291387655287  1.0000
  C   C52       1.0  0.31812952043497333  0.4748622348611659  0.22657086176080576  1.0000
  C   C53       1.0  0.6533607568065636  0.4696498353290411  0.7029715422403291  1.0000
  C   C54       1.0  0.3466392422936496  0.5303501652259047  0.2970284574077307  1.0000
  C   C55       1.0  0.721876981103199  0.4761357177641802  0.5995025464589641  1.0000
  C   C56       1.0  0.27812301895057606  0.5238642827971782  0.4004974531835189  1.0000
  C   C57       1.0  0.8225060252659125  0.5392959497080965  0.5674285696867091  1.0000
  C   C58       1.0  0.17749397509468004  0.46070404996471265  0.4325714299576036  1.0000
  C   C59       1.0  0.854164366703146  0.5960745199107162  0.6352755178810561  1.0000
  C   C60       1.0  0.1458356336574464  0.4039254797620927  0.36472448176325656  1.0000
  C   C61       1.0  0.6085695911624106  0.5129206652106031  0.8858817922553791  1.0000
  C   C62       1.0  0.3914304088913643  0.4870793353507551  0.11411820738710401  1.0000
  C   C63       1.0  0.6898642939254997  0.41461643167619644  0.5263631226398482  1.0000
  C   C64       1.0  0.31013570612827523  0.5853835688851617  0.47363687700263485  1.0000
  C   C65       1.0  0.9653064935227355  0.6598140370569974  0.6005624866246337  1.0000
  C   C66       1.0  0.03469350653103936  0.3401859635043609  0.39943751301784935  1.0000
  C   C67       1.0  0.04072375438380299  0.8021442075447257  0.15795869529460363  1.0000
  C   C68       1.0  0.9592762456699719  0.19785579301663248  0.8420413043478796  1.0000
  C   C69       1.0  0.8647032459230861  0.0923601868801799  0.33741105511775626  1.0000
  C   C70       1.0  0.135296754162271  0.9076398132814903  0.6625889454067486  1.0000
  C   C71       1.0  0.7701382328826737  0.10091016342492899  0.4230806032310481  1.0000
  C   C72       1.0  0.2298617674779188  0.8990898362478802  0.5769193964132645  1.0000
  C   C73       1.0  0.6734571101207282  0.21976211201344067  0.4010433595042584  1.0000
  C   C74       1.0  0.32654288996462877  0.7802378881482296  0.5989566410202465  1.0000
  C   C75       1.0  0.6748793200997132  0.32901085911229544  0.29692296040134813  1.0000
  C   C76       1.0  0.32512067995406185  0.670989141449063  0.703077039241135  1.0000
  C   C77       1.0  0.7708324032303474  0.31876595654389434  0.21276492079684703  1.0000
  C   C78       1.0  0.22916759716182714  0.6812340427292266  0.7872350797294874  1.0000
  C   C79       1.0  0.8649994347727524  0.19944131392817524  0.2314965132740572  1.0000
  C   C80       1.0  0.1350005653126047  0.8005586862334948  0.7685034872504476  1.0000
  O   O1        1.0  0.9289487951938996  0.7629465702510677  0.14141112082272136  1.0000
  O   O2        1.0  0.07105120516669286  0.23705342942174132  0.8585888788215913  1.0000
  Cl  Cl1       1.0  0.9858935211755214  0.9454972249818769  0.36323349866444204  1.0000
  Cl  Cl2       1.0  0.014106478909835551  0.054502775179793295  0.6367665018600629  1.0000
