data_image0
_chemical_formula_structural       H98C96N6O8Cl4
_chemical_formula_sum              "H98 C96 N6 O8 Cl4"
_cell_length_a       11.96671345412337
_cell_length_b       13.026460119450014
_cell_length_c       13.491718797009442
_cell_angle_alpha    98.28058029792068
_cell_angle_beta     98.61596773348138
_cell_angle_gamma    98.1594093735233

_space_group_name_H-M_alt    "P 1"
_space_group_IT_number       1

loop_
  _space_group_symop_operation_xyz
  'x, y, z'

loop_
  _atom_site_type_symbol
  _atom_site_label
  _atom_site_symmetry_multiplicity
  _atom_site_fract_x
  _atom_site_fract_y
  _atom_site_fract_z
  _atom_site_occupancy
  H   H1        1.0  0.6366834873853734  0.2705509544967041  0.21953051312554783  1.0000
  H   H2        1.0  0.36331651204349985  0.7294490448477053  0.7804694865773383  1.0000
  H   H3        1.0  0.5207747085131711  0.5006500032714414  0.7467828146518809  1.0000
  H   H4        1.0  0.479225291752633  0.49934999607435887  0.2532171850574889  1.0000
  H   H5        1.0  0.6205186434911221  0.21476219775374708  0.04566060972260907  1.0000
  H   H6        1.0  0.3794813559377511  0.7852378015906625  0.9543393899802771  1.0000
  H   H7        1.0  0.7161213803973604  0.19482056968367303  0.8938544290519524  1.0000
  H   H8        1.0  0.2838786198684438  0.8051794296621272  0.10614557065741734  1.0000
  H   H9        1.0  0.916626205810989  0.2823433782457389  0.9035812343898064  1.0000
  H   H10       1.0  0.08337379387920975  0.7176566220091691  0.09641876607112594  1.0000
  H   H11       1.0  0.9270585972786775  0.41308781267854644  0.21870960405572656  1.0000
  H   H12       1.0  0.07294140241152139  0.5869121875763615  0.7812903964052058  1.0000
  H   H13       1.0  0.5456856264747194  0.4694009248246029  0.5408631099304096  1.0000
  H   H14       1.0  0.4543143730964099  0.5305990746552276  0.45913689053302464  1.0000
  H   H15       1.0  0.5976692846882813  0.18880852835179424  0.5183478544226189  1.0000
  H   H16       1.0  0.40233071474059207  0.8111914709926153  0.48165214528026734  1.0000
  H   H17       1.0  0.4463943744721005  0.04005329105890856  0.5257111724616893  1.0000
  H   H18       1.0  0.5536056257937036  0.9599467082868918  0.4742888272476804  1.0000
  H   H19       1.0  0.21617453991099017  0.2559656637385982  0.5869217227035418  1.0000
  H   H20       1.0  0.7838254596369525  0.7440343363808886  0.41307827699684235  1.0000
  H   H21       1.0  0.366090315637976  0.404379454563971  0.5797237475367166  1.0000
  H   H22       1.0  0.6339096839099667  0.5956205455555159  0.42027625216366754  1.0000
  H   H23       1.0  0.23945963204117915  0.9737211806168505  0.5131001554870419  1.0000
  H   H24       1.0  0.7605403683436944  0.02627881950402727  0.486899844219826  1.0000
  H   H25       1.0  0.14316322840433068  0.06262062390777194  0.5371962752544412  1.0000
  H   H26       1.0  0.8568367711667985  0.9373793755720584  0.46280372520899304  1.0000
  H   H27       1.0  0.23369323381466728  0.02970391271665341  0.6395325741415715  1.0000
  H   H28       1.0  0.7663067664511369  0.9702960866291469  0.3604674255677982  1.0000
  H   H29       1.0  0.7761364540195708  0.5733102141526731  0.7525006203639661  1.0000
  H   H30       1.0  0.22386354650755907  0.4266897861036257  0.2474993801034499  1.0000
  H   H31       1.0  0.6396128772064026  0.5934256800979574  0.690985471100076  1.0000
  H   H32       1.0  0.3603871231784711  0.4065743200229204  0.3090145286067918  1.0000
  H   H33       1.0  0.7500716169993349  0.5778915344646868  0.6197574092859223  1.0000
  H   H34       1.0  0.24992838254860789  0.4221084656548002  0.380242590414462  1.0000
  H   H35       1.0  0.41003446621354966  0.5539152735980518  0.8611313829607067  1.0000
  H   H36       1.0  0.589965534171324  0.44608472652282594  0.13886861674616122  1.0000
  H   H37       1.0  0.2776128954882357  0.5055741787029553  0.9778606432745582  1.0000
  H   H38       1.0  0.722387104896638  0.49442582141792246  0.02213935643230957  1.0000
  H   H39       1.0  0.26321873153088937  0.32799951282873724  0.030675698998900346  1.0000
  H   H40       1.0  0.7367812680170535  0.6720004872907498  0.969324300701484  1.0000
  H   H41       1.0  0.5131062307689063  0.2493947427767099  0.8452850266054927  1.0000
  H   H42       1.0  0.48689376877903645  0.7506052573427772  0.15471497309489152  1.0000
  H   H43       1.0  0.8401704746548576  0.406197663750299  0.7862016453160001  1.0000
  H   H44       1.0  0.15982952503534123  0.593802336504609  0.21379835514493226  1.0000
  H   H45       1.0  0.9363940410161266  0.4563749266931198  0.7113963371159849  1.0000
  H   H46       1.0  0.06360595936874705  0.5436250734277579  0.2886036625908829  1.0000
  H   H47       1.0  0.09671560005409949  0.38042537713902247  0.7596399729404887  1.0000
  H   H48       1.0  0.9032844003307742  0.6195746229818554  0.2403600267663792  1.0000
  H   H49       1.0  0.18871140965926136  0.2236333528186652  0.7769279482448522  1.0000
  H   H50       1.0  0.8112885908678683  0.7763666474376336  0.22307205222256368  1.0000
  H   H51       1.0  0.06996086252100747  0.044796636546809716  0.7368773837987882  1.0000
  H   H52       1.0  0.9300391371691914  0.9552033637080982  0.26312261666214426  1.0000
  H   H53       1.0  0.8583281342975939  0.024771261632752967  0.6844513998656037  1.0000
  H   H54       1.0  0.14167186608727986  0.9752287384881249  0.3155485998412644  1.0000
  H   H55       1.0  0.7656383855791153  0.18318946479177398  0.6734748845363712  1.0000
  H   H56       1.0  0.2343616139688273  0.8168105353277129  0.3265251151640131  1.0000
  H   H57       1.0  0.0035405990480914386  0.44237358159042084  0.5716665680682226  1.0000
  H   H58       1.0  0.9964594003807817  0.5576264177539886  0.42833343163466353  1.0000
  H   H59       1.0  0.1482785367274601  0.37672304272449786  0.4844912399236178  1.0000
  H   H60       1.0  0.8517214629627388  0.6232769575304101  0.5155087605373146  1.0000
  H   H61       1.0  0.8935015423454382  0.12789566289854126  0.3000161091080575  1.0000
  H   H62       1.0  0.10649845803943543  0.8721043372223365  0.6999838905988103  1.0000
  H   H63       1.0  0.7451634235555908  0.19511325391140869  0.38902054298484773  1.0000
  H   H64       1.0  0.2548365758732824  0.8048867454330009  0.6109794567180384  1.0000
  H   H65       1.0  0.12650457103161644  0.2473576232738192  0.2602764319972189  1.0000
  H   H66       1.0  0.8734954294955132  0.7526423769824796  0.7397235684701972  1.0000
  H   H67       1.0  0.09965202063052438  0.12441019773421616  0.3000057607315057  1.0000
  H   H68       1.0  0.9003479797543493  0.8755898023866616  0.6999942389753622  1.0000
  H   H69       1.0  0.2063480242225748  0.22655314598998016  0.375477036640281  1.0000
  H   H70       1.0  0.793651975325368  0.773446854129507  0.6245229630601032  1.0000
  H   H71       1.0  0.37162613575010106  0.20234968375139067  0.19126802316693672  1.0000
  H   H72       1.0  0.6283738637978417  0.7976503163680962  0.8087319765334474  1.0000
  H   H73       1.0  0.4224845374991922  0.21861201022796534  0.32512826715806303  1.0000
  H   H74       1.0  0.5775154621910067  0.7813879900269426  0.6748717333028693  1.0000
  H   H75       1.0  0.3658642653196173  0.03844053908174752  0.32970730363633854  1.0000
  H   H76       1.0  0.6341357343705815  0.9615594611731605  0.6702926968245939  1.0000
  H   H77       1.0  0.27362105941867737  0.03563654628080133  0.21279527920263044  1.0000
  H   H78       1.0  0.7263789411084524  0.9643634539754975  0.7872047212647856  1.0000
  H   H79       1.0  0.4406834905188761  0.9111491679477512  0.2206306963886409  1.0000
  H   H80       1.0  0.5593165100082536  0.08885083230854754  0.7793693040787751  1.0000
  H   H81       1.0  0.4124321884592838  0.9756091311488849  0.11386066105859603  1.0000
  H   H82       1.0  0.5875678110886591  0.024390868970602112  0.8861393386417882  1.0000
  H   H83       1.0  0.5995045272645168  0.04855317516594261  0.3022626218205632  1.0000
  H   H84       1.0  0.40049547300128746  0.9514468241798576  0.6977373778888066  1.0000
  H   H85       1.0  0.6140284653702549  0.04677687084887555  0.17171974410305396  1.0000
  H   H86       1.0  0.38597153417768787  0.9532231292706115  0.8282802555973302  1.0000
  H   H87       1.0  0.8648092629346656  0.05317275745294168  0.9312626708953472  1.0000
  H   H88       1.0  0.13519073661327716  0.9468272426665452  0.06873732880503705  1.0000
  H   H89       1.0  0.7981434591707006  0.0016929052710235684  0.02602232072383079  1.0000
  H   H90       1.0  0.20185654121417312  0.9983070948498541  0.9739776789830371  1.0000
  H   H91       1.0  0.949033223962842  0.15710012972046083  0.10181646353094874  1.0000
  H   H92       1.0  0.0509667765642879  0.8428998705358378  0.8981835369364672  1.0000
  H   H93       1.0  0.9843589151743616  0.042154316694127086  0.14527769139102306  1.0000
  H   H94       1.0  0.015641085352768227  0.9578456835621716  0.8547223090763929  1.0000
  H   H95       1.0  0.15637780636575643  0.14264723457277867  0.09854935356987896  1.0000
  H   H96       1.0  0.8436221932053729  0.8573527649070518  0.9014506468935555  1.0000
  H   H97       1.0  0.08021904502823375  0.139281708000692  0.9752225964201237  1.0000
  H   H98       1.0  0.9197809554988959  0.8607182922556068  0.02477740404729226  1.0000
  C   C1        1.0  0.767590307769413  0.31612767255192886  0.1412918177569114  1.0000
  C   C2        1.0  0.23240969275771672  0.6838723277043699  0.8587081827105045  1.0000
  C   C3        1.0  0.7087964015580468  0.2528601104197766  0.049922464384305434  1.0000
  C   C4        1.0  0.29120359813215196  0.7471398898351314  0.950077536076627  1.0000
  C   C5        1.0  0.762258763328994  0.24143145003168603  0.9653205927494694  1.0000
  C   C6        1.0  0.2377412360998792  0.7585685493127233  0.03467940695341673  1.0000
  C   C7        1.0  0.8744157273006997  0.29130508809440725  0.9696074049642104  1.0000
  C   C8        1.0  0.125584273084174  0.7086949120264705  0.030392594742657392  1.0000
  C   C9        1.0  0.9319249513294053  0.3521205090112894  0.06134889114567804  1.0000
  C   C10       1.0  0.06807504836079338  0.6478794912436187  0.9386511093152543  1.0000
  C   C11       1.0  0.8811476039105357  0.36587488098699195  0.14765381695795177  1.0000
  C   C12       1.0  0.11885239661659405  0.6341251192693068  0.8523461835094642  1.0000
  C   C13       1.0  0.7343862106413686  0.4005698366774032  0.30903771912736283  1.0000
  C   C14       1.0  0.2656137890488301  0.5994301635775048  0.6909622813335694  1.0000
  C   C15       1.0  0.6418477653994635  0.3926412875192799  0.3760504418455861  1.0000
  C   C16       1.0  0.35815223414847924  0.6073587126002071  0.6239495578547981  1.0000
  C   C17       1.0  0.667795925090512  0.38152152794021027  0.4788117145778957  1.0000
  C   C18       1.0  0.3322040754366177  0.6184784723160885  0.5211882858895203  1.0000
  C   C19       1.0  0.5865483317382402  0.40109158195429884  0.5525842317576433  1.0000
  C   C20       1.0  0.4134516676906331  0.5989084173901106  0.44741576794524285  1.0000
  C   C21       1.0  0.4932793246814748  0.307886867992972  0.5489957531042575  1.0000
  C   C22       1.0  0.5067206755843293  0.6921131313528283  0.4510042466051123  1.0000
  C   C23       1.0  0.5140185361199328  0.2041173985806161  0.5335072738023123  1.0000
  C   C24       1.0  0.485981463570266  0.7958826016742918  0.46649272665862  1.0000
  C   C25       1.0  0.4288966213998888  0.12042890425380309  0.5373921536710086  1.0000
  C   C26       1.0  0.5711033782903099  0.879571096001105  0.4626078467899237  1.0000
  C   C27       1.0  0.3203600058342258  0.13679016513133607  0.5565601480806681  1.0000
  C   C28       1.0  0.6796399937137171  0.863209834988151  0.4434398516197161  1.0000
  C   C29       1.0  0.29978935923977557  0.24060820002726643  0.5717375988536227  1.0000
  C   C30       1.0  0.7002106403081672  0.7593918000922206  0.4282624008467615  1.0000
  C   C31       1.0  0.3844893117634873  0.32443175587754514  0.5673852402933566  1.0000
  C   C32       1.0  0.6155106879267115  0.6755682443773628  0.43261476016757583  1.0000
  C   C33       1.0  0.229588809608793  0.04611341028772446  0.5613567318711142  1.0000
  C   C34       1.0  0.7704111907760807  0.9538865898331533  0.4386432678357536  1.0000
  C   C35       1.0  0.6726944769252863  0.4325332484019316  0.656669933544841  1.0000
  C   C36       1.0  0.3273055234595873  0.5674667517189461  0.34333006616202677  1.0000
  C   C37       1.0  0.7117732320548266  0.5516938788845955  0.6826636426847495  1.0000
  C   C38       1.0  0.28822676833004707  0.44830612123628216  0.3173363570221183  1.0000
  C   C39       1.0  0.6204358950709548  0.38408370423015825  0.7400780630701895  1.0000
  C   C40       1.0  0.3795641046192441  0.6159162960247497  0.2599219373907428  1.0000
  C   C41       1.0  0.4697525072425146  0.4047588596617694  0.8454922486251237  1.0000
  C   C42       1.0  0.5302474924476842  0.5952411405931386  0.15450775183580867  1.0000
  C   C43       1.0  0.402819899122141  0.476463381013441  0.8832937689574174  1.0000
  C   C44       1.0  0.5971801005680578  0.523536619241467  0.11670623150351501  1.0000
  C   C45       1.0  0.32914233552300204  0.44906967194316605  0.949195161160146  1.0000
  C   C46       1.0  0.6708576650041276  0.5509303283131328  0.05080483930727  1.0000
  C   C47       1.0  0.3210290261405674  0.3505337861888536  0.9796039813508228  1.0000
  C   C48       1.0  0.6789709735496314  0.6494662140660543  0.020396019110109614  1.0000
  C   C49       1.0  0.38810114205844964  0.2805976563052027  0.9410709230274755  1.0000
  C   C50       1.0  0.6118988574894931  0.7194023438142844  0.05892907667290868  1.0000
  C   C51       1.0  0.46202600627147344  0.3051922949326694  0.8744002124795088  1.0000
  C   C52       1.0  0.5379739934187254  0.6948077053222386  0.12559978798142357  1.0000
  C   C53       1.0  0.8709308703543249  0.3889336974293424  0.7140166679543194  1.0000
  C   C54       1.0  0.12906913017280475  0.6110663028269563  0.2859833325130965  1.0000
  C   C55       1.0  0.925130344390817  0.29131941046775456  0.7148687039269304  1.0000
  C   C56       1.0  0.0748696550380561  0.7086805888766549  0.28513129577595586  1.0000
  C   C57       1.0  0.04413596445237555  0.30238577438115766  0.7445030514447958  1.0000
  C   C58       1.0  0.9558640352378233  0.6976142258737504  0.2554969490161366  1.0000
  C   C59       1.0  0.09611079420884097  0.21398287211218878  0.7533263986299104  1.0000
  C   C60       1.0  0.9038892053622883  0.7860171273676416  0.246673601833524  1.0000
  C   C61       1.0  0.029408108280443723  0.11390905749932723  0.7311426269174479  1.0000
  C   C62       1.0  0.9705918922466859  0.8860909427569716  0.2688573735499682  1.0000
  C   C63       1.0  0.9108092082784524  0.10265367765987074  0.7014677763118381  1.0000
  C   C64       1.0  0.08919079224867733  0.8973463225964281  0.2985322241555779  1.0000
  C   C65       1.0  0.8584458020649833  0.19090120641693298  0.6939299994547227  1.0000
  C   C66       1.0  0.1415541976252155  0.8090987938379751  0.30607000100620957  1.0000
  C   C67       1.0  0.7705493976164592  0.36318872068345626  0.5324704910914828  1.0000
  C   C68       1.0  0.22945060276841428  0.6368112794374214  0.46752950861538506  1.0000
  C   C69       1.0  0.8628361615795428  0.3236658713881814  0.486159851168537  1.0000
  C   C70       1.0  0.1371638389475868  0.6763341288681174  0.513840149298879  1.0000
  C   C71       1.0  0.9774415009857023  0.37316304826750324  0.5127753698682532  1.0000
  C   C72       1.0  0.022558498562240552  0.6268369518519837  0.48722462983213105  1.0000
  C   C73       1.0  0.06008863085695355  0.33592155625654396  0.46175639488821346  1.0000
  C   C74       1.0  0.9399113686909893  0.664078443862943  0.5382436048121708  1.0000
  C   C75       1.0  0.03206443948238255  0.2478035509749112  0.38392117709281237  1.0000
  C   C76       1.0  0.9679355600655604  0.752196449144576  0.6160788226075719  1.0000
  C   C77       1.0  0.9175738323298148  0.19722421677495167  0.35948554598031557  1.0000
  C   C78       1.0  0.08242616805505881  0.802775783345926  0.6405144537265521  1.0000
  C   C79       1.0  0.8339587947174192  0.23471071494496587  0.40921758127590063  1.0000
  C   C80       1.0  0.1660412048305237  0.7652892851745211  0.5907824184244836  1.0000
  C   C81       1.0  0.12120998684278021  0.2093475183591054  0.32755552093024387  1.0000
  C   C82       1.0  0.8787900127051625  0.7906524817603815  0.6724444787701405  1.0000
  C   C83       1.0  0.4168871119112401  0.16753352569265068  0.25172685341786755  1.0000
  C   C84       1.0  0.5831128884736336  0.8324664744282272  0.7482731462890004  1.0000
  C   C85       1.0  0.3631882809503065  0.05342584021088496  0.25136917634365835  1.0000
  C   C86       1.0  0.6368117195768233  0.9465741600454138  0.7486308241237576  1.0000
  C   C87       1.0  0.4399112201558424  0.9880780895696937  0.19674336292072225  1.0000
  C   C88       1.0  0.5600887795343564  0.011921910685214305  0.8032566375402101  1.0000
  C   C89       1.0  0.5562738250375304  0.05870112653261406  0.2268360868162997  1.0000
  C   C90       1.0  0.44372617453359886  0.9412988729472164  0.7731639136471345  1.0000
  C   C91       1.0  0.8791839243326188  0.01187103108363265  0.9967012219280927  1.0000
  C   C92       1.0  0.12081607521532392  0.9881289690358542  0.0032987777722914492  1.0000
  C   C93       1.0  0.9739085709925501  0.08065411467210479  0.0776795236380534  1.0000
  C   C94       1.0  0.02609142939232356  0.9193458854487728  0.9223204760688145  1.0000
  C   C95       1.0  0.08807434648897719  0.09502094339293282  0.039076026265505735  1.0000
  C   C96       1.0  0.9119256537768269  0.9049790559528675  0.960923973443864  1.0000
  N   N1        1.0  0.7090598465181606  0.3261645347941574  0.22361178376953716  1.0000
  N   N2        1.0  0.2909401530297822  0.6738354653253297  0.7763882159308471  1.0000
  N   N3        1.0  0.7722035762544879  0.38247328346129295  0.6339791984327567  1.0000
  N   N4        1.0  0.2277964234357108  0.617526716793615  0.36602080202817555  1.0000
  N   N5        1.0  0.5414994728504077  0.4369004942133576  0.7783919485214783  1.0000
  N   N6        1.0  0.458500527676722  0.5630995060429412  0.2216080519459377  1.0000
  O   O1        1.0  0.8155345213947953  0.475129091281037  0.32943982376593356  1.0000
  O   O2        1.0  0.1844654789900784  0.5248709088398408  0.6705601759409343  1.0000
  O   O3        1.0  0.5446124581172392  0.4092157730577572  0.3358470009371086  1.0000
  O   O4        1.0  0.4553875422676344  0.5907842270631206  0.6641529987697592  1.0000
  O   O5        1.0  0.6466258843558573  0.30172560561504735  0.7650175444716845  1.0000
  O   O6        1.0  0.35337411519208545  0.6982743945044395  0.23498245522869976  1.0000
  O   O7        1.0  0.5324598868756589  0.16455209367820542  0.23105367599194232  1.0000
  O   O8        1.0  0.46754011350921476  0.8354479064426723  0.7689463237149254  1.0000
  Cl  Cl1       1.0  0.07305757602159961  0.41140755874755147  0.06762586221656687  1.0000
  Cl  Cl2       1.0  0.9269424235263434  0.5885924413719356  0.9323741374838174  1.0000
  Cl  Cl3       1.0  0.3792454991523948  0.1563882304384388  0.9760007216185876  1.0000
  Cl  Cl4       1.0  0.6207545012324788  0.8436117696824389  0.023999278088280184  1.0000
