data_image0
_chemical_formula_structural       H80C52N4O12Cl4
_chemical_formula_sum              "H80 C52 N4 O12 Cl4"
_cell_length_a       7.000612127485422
_cell_length_b       11.966997531417089
_cell_length_c       17.268168414965164
_cell_angle_alpha    90.0
_cell_angle_beta     90.0
_cell_angle_gamma    90.0

_space_group_name_H-M_alt    "P 1"
_space_group_IT_number       1

loop_
  _space_group_symop_operation_xyz
  'x, y, z'

loop_
  _atom_site_type_symbol
  _atom_site_label
  _atom_site_symmetry_multiplicity
  _atom_site_fract_x
  _atom_site_fract_y
  _atom_site_fract_z
  _atom_site_occupancy
  H   H1        1.0  0.4524757281671861  0.25473383043633163  0.5171644540054723  1.0000
  H   H2        1.0  0.047524271298187676  0.7452661694452519  0.017164454438788723  1.0000
  H   H3        1.0  0.9524757290610064  0.2452661690866444  0.48283554570699505  1.0000
  H   H4        1.0  0.547524272192008  0.7547338307949392  0.9828355458527787  1.0000
  H   H5        1.0  0.2148237657812062  0.5495721840615444  0.022402129206983437  1.0000
  H   H6        1.0  0.2851762351126141  0.45042781665567067  0.522402128773667  1.0000
  H   H7        1.0  0.7148237652465801  0.9504278161786467  0.977597871084584  1.0000
  H   H8        1.0  0.7851762345779879  0.049572183702936874  0.47759787093880024  1.0000
  H   H9        1.0  0.851295322676397  0.6236391902318917  0.10411475999052137  1.0000
  H   H10       1.0  0.6487046771481708  0.37636080964969193  0.604114760136305  1.0000
  H   H11       1.0  0.3512953217825767  0.8763608100082995  0.8958852397219458  1.0000
  H   H12       1.0  0.1487046776827971  0.12363918987328414  0.39588524015526233  1.0000
  H   H13       1.0  0.03539555477258028  0.652338754103142  0.22576445204352988  1.0000
  H   H14       1.0  0.4646044461212401  0.34766124661407305  0.7257644521893136  1.0000
  H   H15       1.0  0.5353955542379542  0.8476612461370491  0.7742355476689373  1.0000
  H   H16       1.0  0.9646044455866138  0.15233875374453448  0.27423554752315366  1.0000
  H   H17       1.0  0.24407669484950456  0.5939577702209411  0.18264610259804226  1.0000
  H   H18       1.0  0.25592330461586926  0.4060422296606426  0.6826461021647258  1.0000
  H   H19       1.0  0.7440766957433249  0.9060422300192501  0.8173538976935252  1.0000
  H   H20       1.0  0.7559233055096896  0.0939577698623335  0.31735389754774146  1.0000
  H   H21       1.0  0.0406574360665567  0.5086847836325366  0.20068944526836152  1.0000
  H   H22       1.0  0.4593425648272636  0.4913152162490471  0.700689444835045  1.0000
  H   H23       1.0  0.5406574355319305  0.9913152157720232  0.7993105550232059  1.0000
  H   H24       1.0  0.9593425642926373  0.008684784109560428  0.29931055487742225  1.0000
  H   H25       1.0  0.34970697353566504  0.3845583520777284  0.06035552670987212  1.0000
  H   H26       1.0  0.15029302592970878  0.6154416478038551  0.5603555268556558  1.0000
  H   H27       1.0  0.8497069744294853  0.11544164744524761  0.9396444730025952  1.0000
  H   H28       1.0  0.6502930253950825  0.884558352436336  0.4396444734359116  1.0000
  H   H29       1.0  0.03392571044859599  0.9041714123859026  0.08951591522934069  1.0000
  H   H30       1.0  0.46607428901677783  0.0958285874956809  0.5895159153751244  1.0000
  H   H31       1.0  0.5339257099139698  0.5958285878542885  0.9104840850622268  1.0000
  H   H32       1.0  0.9660742899105981  0.4041714120272952  0.41048408491644306  1.0000
  H   H33       1.0  0.05126311863372798  0.8294373508427234  0.17862331000471787  1.0000
  H   H34       1.0  0.44873688226009234  0.17056264903886026  0.6786233101505016  1.0000
  H   H35       1.0  0.5512631180991018  0.6705626493974679  0.8213766897077494  1.0000
  H   H36       1.0  0.9487368817254661  0.3294373504841158  0.3213766895619657  1.0000
  H   H37       1.0  0.8385041412240739  0.8183691050565712  0.12081356400207478  1.0000
  H   H38       1.0  0.6614958586004941  0.18163089482501238  0.6208135641478585  1.0000
  H   H39       1.0  0.3385041417587001  0.6816308943479884  0.8791864362894927  1.0000
  H   H40       1.0  0.16149585913512024  0.3183691055335952  0.37918643614370895  1.0000
  H   H41       1.0  0.7131284806366236  0.2175528935445271  0.11193693700165938  1.0000
  H   H42       1.0  0.7868715191879442  0.7824471063370565  0.6119369371474431  1.0000
  H   H43       1.0  0.21312848117124983  0.2824471068140805  0.8880630627108078  1.0000
  H   H44       1.0  0.2868715197225704  0.7175528930675031  0.38806306314412436  1.0000
  H   H45       1.0  0.739226327035325  0.4177571355618055  0.07158330288976937  1.0000
  H   H46       1.0  0.760773672789243  0.5822428643197781  0.5715833030355532  1.0000
  H   H47       1.0  0.23922632756995116  0.08224286479680208  0.928416697401798  1.0000
  H   H48       1.0  0.26077367189542267  0.9177571350847815  0.4284166972560144  1.0000
  H   H49       1.0  0.3247071411191726  0.18707150762944152  0.10474809120071053  1.0000
  H   H50       1.0  0.17529285834620117  0.812928492252142  0.6047480913464943  1.0000
  H   H51       1.0  0.8247071405845464  0.312928492729166  0.895251909090857  1.0000
  H   H52       1.0  0.6752928592400215  0.6870715071524176  0.3952519089450732  1.0000
  H   H53       1.0  0.0034658554935131317  0.10341327444507747  0.12904968705706799  1.0000
  H   H54       1.0  0.4965341439718607  0.8965867254365061  0.6290496866237515  1.0000
  H   H55       1.0  0.503465854958887  0.3965867250778986  0.8709503132344996  1.0000
  H   H56       1.0  0.9965341448656809  0.603413274803685  0.3709503130887158  1.0000
  H   H57       1.0  0.017949151832974717  0.4321777619174929  0.7748870157186843  1.0000
  H   H58       1.0  0.4820508476323991  0.5678222379640907  0.27488701557290063  1.0000
  H   H59       1.0  0.517949152726795  0.06782223844111464  0.2251129845728831  1.0000
  H   H60       1.0  0.9820508470977729  0.9321777622761005  0.7251129841395666  1.0000
  H   H61       1.0  0.7780003749409758  0.4661834203068793  0.7503202770926958  1.0000
  H   H62       1.0  0.7219996248835922  0.5338165795747043  0.2503202775260123  1.0000
  H   H63       1.0  0.278000375475602  0.03381657921609673  0.24967972261977142  1.0000
  H   H64       1.0  0.2219996254182183  0.9661834206654868  0.7496797227655551  1.0000
  H   H65       1.0  0.007778452656476417  0.5833926882387583  0.6740761961710043  1.0000
  H   H66       1.0  0.4922215468088974  0.41660731164282533  0.17407619602522068  1.0000
  H   H67       1.0  0.5077784535502967  0.9166073111658013  0.32592380412056304  1.0000
  H   H68       1.0  0.9922215477027178  0.08339268871578226  0.8259238042663468  1.0000
  H   H69       1.0  0.111286328368522  0.6347942556231513  0.7611057342138224  1.0000
  H   H70       1.0  0.3887136710968518  0.3652057442584323  0.26110573464713893  1.0000
  H   H71       1.0  0.6112863292623423  0.8652057437814084  0.2388942654986448  1.0000
  H   H72       1.0  0.8887136705622256  0.13479425610017523  0.7388942656444285  1.0000
  H   H73       1.0  0.8711708946215576  0.6693639168029019  0.7374733071843098  1.0000
  H   H74       1.0  0.6288291052030104  0.33063608307868175  0.23747330703852604  1.0000
  H   H75       1.0  0.37117089372773726  0.8306360826016578  0.2625266931072577  1.0000
  H   H76       1.0  0.12882910573763653  0.1693639172799258  0.7625266932530413  1.0000
  H   H77       1.0  0.22830089724940678  0.7318240023872504  0.08126232882833688  1.0000
  H   H78       1.0  0.2716991036444136  0.26817599749433313  0.5812623289741207  1.0000
  H   H79       1.0  0.7283008967147806  0.7681759978529408  0.9187376708841304  1.0000
  H   H80       1.0  0.7716991031097874  0.23182400202864292  0.41873767073834667  1.0000
  C   C1        1.0  0.06689048349950527  0.5337962444823504  0.04089196856500687  1.0000
  C   C2        1.0  0.433109517394315  0.4662037553992332  0.5408919681316904  1.0000
  C   C3        1.0  0.5668904829648791  0.9662037557578407  0.9591080317265606  1.0000
  C   C4        1.0  0.9331095168596888  0.03379624495937435  0.45910803158077684  1.0000
  C   C5        1.0  0.008355020808874517  0.6187417312121053  0.10279065430365626  1.0000
  C   C6        1.0  0.4916449786564993  0.3812582686694783  0.6027906544494399  1.0000
  C   C7        1.0  0.5083550217026949  0.8812582690280858  0.8972093459879112  1.0000
  C   C8        1.0  0.9916449781218731  0.11874173085349775  0.39720934584212747  1.0000
  C   C9        1.0  0.047214942633698756  0.41401851776042764  0.06584885453251435  1.0000
  C   C10       1.0  0.4527850568316751  0.585981482121156  0.5658488546782982  1.0000
  C   C11       1.0  0.5472149435275191  0.08598148259817988  0.9341511451799529  1.0000
  C   C12       1.0  0.9527850577254954  0.9140185181190351  0.4341511450341692  1.0000
  C   C13       1.0  0.08733220450817973  0.5921308374466505  0.182809950316689  1.0000
  C   C14       1.0  0.4126677949571941  0.40786916243493304  0.6828099504624727  1.0000
  C   C15       1.0  0.5873322039735536  0.9078691627935406  0.8171900493957782  1.0000
  C   C16       1.0  0.9126677958510144  0.09213083792367445  0.3171900498290947  1.0000
  C   C17       1.0  0.21093071907276228  0.3484949486327964  0.07427444412045871  1.0000
  C   C18       1.0  0.28906928039261154  0.6515050512487872  0.5742744436871422  1.0000
  C   C19       1.0  0.7109307199665826  0.1515050517258111  0.9257255561711089  1.0000
  C   C20       1.0  0.7890692798579854  0.8484949481557725  0.425725556025325  1.0000
  C   C21       1.0  0.9940254385296955  0.8273833577725761  0.11973379227690206  1.0000
  C   C22       1.0  0.5059745612948725  0.1726166421090075  0.6197337924226858  1.0000
  C   C23       1.0  0.4940254390643216  0.672616642467615  0.8802662074355652  1.0000
  C   C24       1.0  0.005974561829498688  0.32738335741396857  0.3802662072897815  1.0000
  C   C25       1.0  0.006232483560787144  0.5206752841422335  0.9059687741082041  1.0000
  C   C26       1.0  0.4937675173330332  0.4793247157393501  0.40596877396242037  1.0000
  C   C27       1.0  0.506232483026161  0.9793247160979577  0.09403122618336333  1.0000
  C   C28       1.0  0.993767516798407  0.02067528378362599  0.5940312257500469  1.0000
  C   C29       1.0  0.8525244323375676  0.2557660442366246  0.10290771477882792  1.0000
  C   C30       1.0  0.6474755674870003  0.7442339556449591  0.6029077149246116  1.0000
  C   C31       1.0  0.35252443144374723  0.24423395528635147  0.8970922855127396  1.0000
  C   C32       1.0  0.14747556802162656  0.7557660445952321  0.3970922853669558  1.0000
  C   C33       1.0  0.8671317678302042  0.36712103503540683  0.08008872781212042  1.0000
  C   C34       1.0  0.6328682319943637  0.6328789648461768  0.5800887273788039  1.0000
  C   C35       1.0  0.36713176693638383  0.13287896532320073  0.919911272479447  1.0000
  C   C36       1.0  0.13286823252898994  0.8671210353940144  0.4199112723336633  1.0000
  C   C37       1.0  0.19634199623822285  0.23763212389191946  0.09846887632427752  1.0000
  C   C38       1.0  0.3036580032271509  0.7623678759896642  0.5984688764700612  1.0000
  C   C39       1.0  0.6963419971320433  0.2623678756310566  0.90153112396729  1.0000
  C   C40       1.0  0.8036580041209712  0.737632124250527  0.4015311238215062  1.0000
  C   C41       1.0  0.01707913648444723  0.1909008382430473  0.11245457846688008  1.0000
  C   C42       1.0  0.4829208644093731  0.8090991616385363  0.6124545786126638  1.0000
  C   C43       1.0  0.517079135949821  0.30909916127992876  0.8875454212455872  1.0000
  C   C44       1.0  0.9829208638747469  0.6909008386016549  0.3875454210998035  1.0000
  C   C45       1.0  0.9103582306722038  0.4987440336919026  0.775466606429146  1.0000
  C   C46       1.0  0.5896417691523642  0.5012559661896809  0.27546660686246244  1.0000
  C   C47       1.0  0.41035822977838343  0.0012559666667049261  0.2245333932833213  1.0000
  C   C48       1.0  0.0896417696869904  0.9987440340505102  0.724533393429105  1.0000
  C   C49       1.0  0.9792474208198126  0.603090059227694  0.7349443892961709  1.0000
  C   C50       1.0  0.5207525790047554  0.39690994065388957  0.23494438915038718  1.0000
  C   C51       1.0  0.47924742135443876  0.8969099410124972  0.2650556109953966  1.0000
  C   C52       1.0  0.02075257811093499  0.10309005970471795  0.7650556105620802  1.0000
  N   N1        1.0  0.07765674916705806  0.7318218364304235  0.07665884755054785  1.0000
  N   N2        1.0  0.42234325029831576  0.26817816345115997  0.5766588471172314  1.0000
  N   N3        1.0  0.5776567500608784  0.7681781638097674  0.9233411527410197  1.0000
  N   N4        1.0  0.9223432511921361  0.23182183607181606  0.42334115259523586  1.0000
  O   O1        1.0  0.9387957924703187  0.5546883036094316  0.9752829811067124  1.0000
  O   O2        1.0  0.5612042087826957  0.44531169627215206  0.47528298096092886  1.0000
  O   O3        1.0  0.4387957915764984  0.9453116966307595  0.024717018605754724  1.0000
  O   O4        1.0  0.061204207888875393  0.054688304086455496  0.5247170187515385  1.0000
  O   O5        1.0  0.8600644558439062  0.5232649696434329  0.8557073729483782  1.0000
  O   O6        1.0  0.6399355439806617  0.47673503023815067  0.35570737280259446  1.0000
  O   O7        1.0  0.3600644563785325  0.9767350305967583  0.1442926273431893  1.0000
  O   O8        1.0  0.1399355430868413  0.023264970120456897  0.6442926269098729  1.0000
  O   O9        1.0  0.16957583685277128  0.49096858460739184  0.8919604048250808  1.0000
  O   O10       1.0  0.3304241626126025  0.5090314152741918  0.391960404679297  1.0000
  O   O11       1.0  0.6695758363181451  0.009031415751215726  0.10803959546648674  1.0000
  O   O12       1.0  0.8304241635064228  0.9909685841303679  0.6080395956122705  1.0000
  Cl  Cl1       1.0  0.48446946756043696  0.18465822226490614  0.4088972148245199  1.0000
  Cl  Cl2       1.0  0.015530533333383341  0.8153417784523089  0.9088972149703036  1.0000
  Cl  Cl3       1.0  0.9844694670258107  0.3153417780937014  0.5911027854670475  1.0000
  Cl  Cl4       1.0  0.5155305327987572  0.6846582217878822  0.09110278532126383  1.0000
