data_image0
_chemical_formula_structural       H72C120F6P
_chemical_formula_sum              "H72 C120 F6 P1"
_cell_length_a       12.165639340934703
_cell_length_b       13.67704303309348
_cell_length_c       13.752398885048615
_cell_angle_alpha    110.86962837066243
_cell_angle_beta     106.5930718644678
_cell_angle_gamma    106.84533113551693

_space_group_name_H-M_alt    "P 1"
_space_group_IT_number       1

loop_
  _space_group_symop_operation_xyz
  'x, y, z'

loop_
  _atom_site_type_symbol
  _atom_site_label
  _atom_site_symmetry_multiplicity
  _atom_site_fract_x
  _atom_site_fract_y
  _atom_site_fract_z
  _atom_site_occupancy
  H   H1        1.0  0.9028548580424282  0.9492894056969663  0.23879275330672778  1.0000
  H   H2        1.0  0.09714514160687396  0.05071059424473025  0.7612072467396409  1.0000
  H   H3        1.0  0.9648819136293273  0.8739310969440945  0.3754826044154982  1.0000
  H   H4        1.0  0.035118087090546646  0.1260689037628871  0.6245173956317251  1.0000
  H   H5        1.0  0.8074427485504618  0.7043821957344499  0.3618549432075435  1.0000
  H   H6        1.0  0.19255725192120796  0.2956178042082631  0.6381450568389797  1.0000
  H   H7        1.0  0.7435106631772946  0.9382479104513385  0.07682856843234145  1.0000
  H   H8        1.0  0.2564893364720074  0.06175208949035802  0.9231714316140271  1.0000
  H   H9        1.0  0.518046789296378  0.8438762737894192  0.92686627633578  1.0000
  H   H10       1.0  0.4819532111752917  0.15612372615329378  0.0731337237107432  1.0000
  H   H11       1.0  0.3578155550494185  0.6750256998389563  0.9109805842274402  1.0000
  H   H12       1.0  0.6421844454222512  0.32497430010375666  0.08901941581908283  1.0000
  H   H13       1.0  0.684742632610281  0.5645275634458505  0.3433052859779063  1.0000
  H   H14       1.0  0.315257368109593  0.4354724372611311  0.6566947140693169  1.0000
  H   H15       1.0  0.5251562677555417  0.3937633445536385  0.32585610799122855  1.0000
  H   H16       1.0  0.47484373230184795  0.6062366549732757  0.6741438911911506  1.0000
  H   H17       1.0  0.300651530982642  0.2983196315125263  0.17412158496717714  1.0000
  H   H18       1.0  0.6993484694890276  0.7016803684301868  0.825878415079346  1.0000
  H   H19       1.0  0.23489477720303142  0.5354659848587361  0.8933887542817965  1.0000
  H   H20       1.0  0.7651052224462707  0.4645340150829604  0.1066112457645721  1.0000
  H   H21       1.0  0.07872790548490913  0.36288635965557725  0.8764544703551654  1.0000
  H   H22       1.0  0.9212720941643932  0.6371136402861194  0.12354552969120328  1.0000
  H   H23       1.0  0.14134454229384918  0.28522411116097834  0.01155879736084947  1.0000
  H   H24       1.0  0.8586554573554529  0.7147758887807182  0.9884412026855193  1.0000
  H   H25       1.0  0.19897987815803633  0.8623471118446865  0.9369483086093446  1.0000
  H   H26       1.0  0.8010201223136334  0.13765288809802653  0.06305169143717847  1.0000
  H   H27       1.0  0.3356142512225532  0.9160390796007217  0.8415283083988427  1.0000
  H   H28       1.0  0.6643857484267489  0.0839609203409749  0.15847169164752595  1.0000
  H   H29       1.0  0.3282587007126318  0.765406681624237  0.673288318925493  1.0000
  H   H30       1.0  0.6717412997590378  0.2345933183184761  0.32671168112103016  1.0000
  H   H31       1.0  0.04308377234580636  0.7149368076421208  0.9484337273499305  1.0000
  H   H32       1.0  0.9569162281258633  0.2850631923005923  0.05156627269659266  1.0000
  H   H33       1.0  0.9077201657261627  0.507017561332306  0.8802461033702014  1.0000
  H   H34       1.0  0.09227983392313946  0.49298243860939056  0.11975389667616733  1.0000
  H   H35       1.0  0.8985402885109481  0.3534234680680985  0.7125728029170133  1.0000
  H   H36       1.0  0.10145971196072151  0.6465765318746145  0.2874271971295099  1.0000
  H   H37       1.0  0.31150711069293924  0.645847691997572  0.5333394260224417  1.0000
  H   H38       1.0  0.6884928889563628  0.3541523079441247  0.46666057402392697  1.0000
  H   H39       1.0  0.2951315623856265  0.4927185702569469  0.3605445849863177  1.0000
  H   H40       1.0  0.7048684380860433  0.5072814296857661  0.6394554150602054  1.0000
  H   H41       1.0  0.15132345625793467  0.2849180529509953  0.28614124839226923  1.0000
  H   H42       1.0  0.8486765436395718  0.71508194775497  0.7138587516547995  1.0000
  H   H43       1.0  0.8854559959183643  0.23482574518258165  0.5759788441638992  1.0000
  H   H44       1.0  0.1145440037309377  0.7651742547591149  0.4240211558824695  1.0000
  H   H45       1.0  0.8727548520407779  0.08403348390677684  0.4041264264656927  1.0000
  H   H46       1.0  0.1272451476085242  0.9159665160349197  0.5958735735806759  1.0000
  H   H47       1.0  0.0020279307419801213  0.13871399438466425  0.30308209362618027  1.0000
  H   H48       1.0  0.9979720689073219  0.8612860055570323  0.6969179064201884  1.0000
  H   H49       1.0  0.1149375110183972  0.8174302230217673  0.12503125579028257  1.0000
  H   H50       1.0  0.8850624888791092  0.18256977768419808  0.8749687442567863  1.0000
  H   H51       1.0  0.19996426893093225  0.6695291225491535  0.07463502763431755  1.0000
  H   H52       1.0  0.80003573071837  0.33047087739254316  0.9253649724120512  1.0000
  H   H53       1.0  0.3471882248795549  0.6560574497673576  0.227741293744472  1.0000
  H   H54       1.0  0.6528117750179515  0.3439425509386078  0.7722587063025969  1.0000
  H   H55       1.0  0.10943234165691847  0.9790883953027641  0.26641380210970167  1.0000
  H   H56       1.0  0.8905676588147514  0.020911604639949077  0.7335861979368217  1.0000
  H   H57       1.0  0.17832588095407437  0.1178533308710967  0.47256033019435645  1.0000
  H   H58       1.0  0.8216741195175953  0.8821466690716163  0.5274396698521667  1.0000
  H   H59       1.0  0.32430538949252297  0.10646931614494227  0.6283553824523439  1.0000
  H   H60       1.0  0.6756946101567791  0.8935306837967543  0.37164461759402484  1.0000
  H   H61       1.0  0.46184459201908024  0.645633575113629  0.3495339760944603  1.0000
  H   H62       1.0  0.5381554084525896  0.35436642482908404  0.6504660239520629  1.0000
  H   H63       1.0  0.6127072025085732  0.6378924029703334  0.5053101497185175  1.0000
  H   H64       1.0  0.3872927979630965  0.36210759697237954  0.49468985032800566  1.0000
  H   H65       1.0  0.6839126385240442  0.778170035688259  0.7106922539138104  1.0000
  H   H66       1.0  0.3160873619476257  0.22182996425445412  0.2893077461327129  1.0000
  H   H67       1.0  0.4356102033204368  0.0934380042424869  0.7504539637024698  1.0000
  H   H68       1.0  0.5643897963288653  0.9065619956992097  0.249546036343899  1.0000
  H   H69       1.0  0.587318465456233  0.08383099381491607  0.9035839765560741  1.0000
  H   H70       1.0  0.4126815341930692  0.9161690061267805  0.0964160234902947  1.0000
  H   H71       1.0  0.6738888755348765  0.9370198723074523  0.8543667660201212  1.0000
  H   H72       1.0  0.32611112493679306  0.0629801276352607  0.14563323402640196  1.0000
  C   C1        1.0  0.8330053273630312  0.8748143771056103  0.23401464466074678  1.0000
  C   C2        1.0  0.16699467310863841  0.12518562283710266  0.7659853553857763  1.0000
  C   C3        1.0  0.867197591594165  0.8324469872845108  0.3093488008151533  1.0000
  C   C4        1.0  0.13280240887750472  0.16755301265820222  0.6906511992313699  1.0000
  C   C5        1.0  0.7767398975356364  0.7351923739575366  0.3009145060133549  1.0000
  C   C6        1.0  0.22326010211366565  0.2648076259841601  0.6990854940330139  1.0000
  C   C7        1.0  0.6506615708351832  0.6775813462002839  0.21642452881008226  1.0000
  C   C8        1.0  0.3493384298846907  0.3224186545066978  0.7835754712371409  1.0000
  C   C9        1.0  0.6132182079743314  0.721296580048629  0.1385306345164961  1.0000
  C   C10       1.0  0.38678179249733846  0.27870341989408426  0.8614693655300272  1.0000
  C   C11       1.0  0.7061815509887198  0.8212437715257176  0.14788594777592895  1.0000
  C   C12       1.0  0.2938184486605824  0.17875622841597907  0.8521140522704398  1.0000
  C   C13       1.0  0.6703921618020897  0.8643987986184111  0.07027930982778015  1.0000
  C   C14       1.0  0.3296078374329322  0.13560120090748667  0.9297206893544445  1.0000
  C   C15       1.0  0.5461628819522932  0.8115269895831858  0.9871704759169198  1.0000
  C   C16       1.0  0.4538371185193765  0.18847301035952724  0.012829524129603321  1.0000
  C   C17       1.0  0.45449673235049287  0.7142801428714802  0.978043109514637  1.0000
  C   C18       1.0  0.5455032672988092  0.28571985707021635  0.02195689053173166  1.0000
  C   C19       1.0  0.4852527564104109  0.6670571024064297  0.05093284533786289  1.0000
  C   C20       1.0  0.5147472443094631  0.33294289830055185  0.9490671547093603  1.0000
  C   C21       1.0  0.556590724858685  0.5739574005578537  0.20521767347294537  1.0000
  C   C22       1.0  0.44340927479061715  0.4260425993838428  0.7947823265734233  1.0000
  C   C23       1.0  0.5876941499724865  0.5257433186670044  0.2771003852971698  1.0000
  C   C24       1.0  0.4123058504991833  0.4742566812757087  0.7228996147493534  1.0000
  C   C25       1.0  0.4965601387127748  0.4280132203730746  0.267492932482132  1.0000
  C   C26       1.0  0.5034398609365273  0.571986779568622  0.7325070675642367  1.0000
  C   C27       1.0  0.3723486225828933  0.3754656551314307  0.1843241109643793  1.0000
  C   C28       1.0  0.6276513770664087  0.6245343448102658  0.8156758890819893  1.0000
  C   C29       1.0  0.3359651241759691  0.41893873572735135  0.10735844719696469  1.0000
  C   C30       1.0  0.6640348757215373  0.5810612649786139  0.892641552850104  1.0000
  C   C31       1.0  0.42871095445258184  0.5196902532049822  0.1176710730986239  1.0000
  C   C32       1.0  0.5712890451967203  0.48030974673671445  0.8823289269477449  1.0000
  C   C33       1.0  0.3911874242600747  0.5634589060306766  0.03984399079404273  1.0000
  C   C34       1.0  0.6088125749749473  0.43654109349522113  0.9601560083881819  1.0000
  C   C35       1.0  0.26542433672878485  0.5050290868684513  0.95482647065203  1.0000
  C   C36       1.0  0.734575663742885  0.49497091307426183  0.04517352939449327  1.0000
  C   C37       1.0  0.17547935351497698  0.40594283194181335  0.9446256052876278  1.0000
  C   C38       1.0  0.8245206469566927  0.5940571680008996  0.05537439475889531  1.0000
  C   C39       1.0  0.2095679577323741  0.36310428576842796  0.01946711513622221  1.0000
  C   C40       1.0  0.7904320427392956  0.636895714174285  0.9805328849103009  1.0000
  C   C41       1.0  0.19924310242187995  0.7959535667874729  0.8638794729730409  1.0000
  C   C42       1.0  0.8007568972274222  0.20404643315422366  0.1361205270733278  1.0000
  C   C43       1.0  0.2738106745496861  0.8252111634681902  0.8104549318712904  1.0000
  C   C44       1.0  0.7261893250996161  0.17478883647350632  0.18954506817507832  1.0000
  C   C45       1.0  0.26923859069443784  0.7385460501005988  0.7138541273800062  1.0000
  C   C46       1.0  0.7307614097772319  0.2614539498421141  0.286145872666517  1.0000
  C   C47       1.0  0.18978876478852794  0.6208995951227768  0.6683348716401966  1.0000
  C   C48       1.0  0.8102112348607742  0.37910040481891977  0.3316651284061722  1.0000
  C   C49       1.0  0.11387734980015511  0.5885611710968569  0.7241736442834764  1.0000
  C   C50       1.0  0.886122649849147  0.4114388288448397  0.27582635576289233  1.0000
  C   C51       1.0  0.11874636134768657  0.6776648202147882  0.8226652806446275  1.0000
  C   C52       1.0  0.8812536383016154  0.3223351797269082  0.17733471940174117  1.0000
  C   C53       1.0  0.04179891233480224  0.6460736296953147  0.8765989693748562  1.0000
  C   C54       1.0  0.9582010873145  0.3539263702463818  0.12340103067151242  1.0000
  C   C55       1.0  0.9656993206318399  0.5306682034870528  0.837617904253942  1.0000
  C   C56       1.0  0.0343006790174622  0.46933179645464373  0.16238209579242668  1.0000
  C   C57       1.0  0.9610149020221751  0.44335967114982366  0.7418020329955798  1.0000
  C   C58       1.0  0.03898509844949472  0.5566403287928895  0.25819796705094344  1.0000
  C   C59       1.0  0.031745092873306284  0.469528065226751  0.6829551750333243  1.0000
  C   C60       1.0  0.9682549067759958  0.5304719347149456  0.3170448250130445  1.0000
  C   C61       1.0  0.18061832036286343  0.5301532149480587  0.5648638715167831  1.0000
  C   C62       1.0  0.8193816788721585  0.4698467845778389  0.4351361276654415  1.0000
  C   C63       1.0  0.2494685483112573  0.5558124622629135  0.5044874348677808  1.0000
  C   C64       1.0  0.7505314521604124  0.4441875376797996  0.4955125651787424  1.0000
  C   C65       1.0  0.24009789084972416  0.4684930742000644  0.40523150026054144  1.0000
  C   C66       1.0  0.7599021096219455  0.5315069257426486  0.5947684997859817  1.0000
  C   C67       1.0  0.16124154657984996  0.35336591398536493  0.36426972975204297  1.0000
  C   C68       1.0  0.8387584538918198  0.6466340859573482  0.6357302702944803  1.0000
  C   C69       1.0  0.08930070015461569  0.3221298635517044  0.42222365483239394  1.0000
  C   C70       1.0  0.9106992994946864  0.6778701363899922  0.5777763452139748  1.0000
  C   C71       1.0  0.09796362521993  0.4111307398889243  0.5233458245914331  1.0000
  C   C72       1.0  0.9020363744293721  0.5888692600527723  0.47665417545493566  1.0000
  C   C73       1.0  0.02337775406292485  0.37881462735318333  0.5801083583584663  1.0000
  C   C74       1.0  0.9766222464087448  0.6211853725895297  0.4198916416880569  1.0000
  C   C75       1.0  0.9436392565446667  0.2612479145983096  0.5346590305525002  1.0000
  C   C76       1.0  0.05636074310463528  0.7387520853433869  0.4653409694938685  1.0000
  C   C77       1.0  0.9363677835349369  0.1746654821817845  0.43647264630476174  1.0000
  C   C78       1.0  0.06363221693673302  0.8253345177609286  0.5635273537417615  1.0000
  C   C79       1.0  0.008130656277572548  0.20419169969167164  0.3808719489972315  1.0000
  C   C80       1.0  0.9918693429574496  0.7958082998342261  0.6191280501849932  1.0000
  C   C81       1.0  0.17964824398705107  0.8093616579726085  0.1917646533904298  1.0000
  C   C82       1.0  0.8203517556622509  0.19063834196908808  0.8082353466559388  1.0000
  C   C83       1.0  0.22712371878846102  0.7281365851956503  0.16452184172162262  1.0000
  C   C84       1.0  0.7728762812689285  0.27186341433126376  0.8354781574607565  1.0000
  C   C85       1.0  0.3118504150230673  0.7211466538235082  0.2524688228163163  1.0000
  C   C86       1.0  0.6881495842119547  0.27885334570238957  0.7475311763659085  1.0000
  C   C87       1.0  0.3509206520090431  0.7949098813814743  0.36930807123278236  1.0000
  C   C88       1.0  0.6490793484626266  0.20509011856123863  0.6306919288137408  1.0000
  C   C89       1.0  0.3039427073854316  0.8805173385002567  0.3988666678161336  1.0000
  C   C90       1.0  0.6960572922638706  0.11948266144143985  0.6011333322302351  1.0000
  C   C91       1.0  0.21738975249679668  0.8873961228087984  0.30846307071255474  1.0000
  C   C92       1.0  0.7826102471525055  0.11260387713289814  0.6915369293338139  1.0000
  C   C93       1.0  0.17269398513561923  0.97370696475667  0.33656541346759705  1.0000
  C   C94       1.0  0.8273060149217701  0.026293034770244073  0.6634345857147821  1.0000
  C   C95       1.0  0.21143572470444422  0.05055619544115536  0.45066001111234627  1.0000
  C   C96       1.0  0.7885642745305778  0.9494438040847424  0.5493399880698784  1.0000
  C   C97       1.0  0.2952047345559947  0.04365068540279835  0.539522746552117  1.0000
  C   C98       1.0  0.704795265915675  0.9563493145399147  0.4604772534944063  1.0000
  C   C99       1.0  0.3421451752993892  0.9601631493639818  0.5165991125082695  1.0000
  C   C100      1.0  0.6578548251722806  0.03983685057873123  0.4834008875382536  1.0000
  C   C101      1.0  0.4392591811848158  0.7881886436946666  0.4617137945705356  1.0000
  C   C102      1.0  0.5607408184644863  0.21181135624703007  0.5382862054758332  1.0000
  C   C103      1.0  0.48881372786455707  0.7066414453271356  0.4383779256483118  1.0000
  C   C104      1.0  0.5111862717847451  0.293358554614561  0.5616220743980569  1.0000
  C   C105      1.0  0.5751493749902181  0.70180692810169  0.5269436653474674  1.0000
  C   C106      1.0  0.4248506257296558  0.29819307260529165  0.47305633469975583  1.0000
  C   C107      1.0  0.6140280133769935  0.7788498265033539  0.6411472413206879  1.0000
  C   C108      1.0  0.3859719862723086  0.22115017343834265  0.35885275872568084  1.0000
  C   C109      1.0  0.5652939693175875  0.86188847535517  0.6701181347153587  1.0000
  C   C110      1.0  0.43470603115408224  0.1381115245875432  0.32988186533116437  1.0000
  C   C111      1.0  0.47677245892955383  0.8671963739591765  0.5795626770737523  1.0000
  C   C112      1.0  0.5232275415421159  0.13280362598353668  0.42043732297277087  1.0000
  C   C113      1.0  0.4294946988630831  0.9526112597919896  0.609013680717067  1.0000
  C   C114      1.0  0.5705053018567908  0.04738874091499206  0.3909863193301562  1.0000
  C   C115      1.0  0.47004454771455517  0.027578933380929625  0.7257644942603482  1.0000
  C   C116      1.0  0.5299554519347469  0.9724210665607671  0.27423550578602046  1.0000
  C   C117      1.0  0.5567546646150943  0.02205874349944443  0.8138611447021857  1.0000
  C   C118      1.0  0.4432453350342079  0.977941256442252  0.18613885534418306  1.0000
  C   C119      1.0  0.604230097494208  0.9407927701587558  0.7871204079089036  1.0000
  C   C120      1.0  0.3957699029774617  0.05920722978395711  0.2128795921376195  1.0000
  F   F1        1.0  0.14553669852237286  0.10480627897146703  0.07891171723137998  1.0000
  F   F2        1.0  0.8544633019492969  0.895193720971246  0.9210882828151432  1.0000
  F   F3        1.0  0.02805773971393012  0.965947874124408  0.8855782837235376  1.0000
  F   F4        1.0  0.9719422599353721  0.0340521258172886  0.11442171632283106  1.0000
  F   F5        1.0  0.05013896379267444  0.9095544934467621  0.027543991730386196  1.0000
  F   F6        1.0  0.9498610358566276  0.09044550649493446  0.9724560083159824  1.0000
  P   P1        1.0  0.0  0.0  0.0  1.0000
