data_image0
_chemical_formula_structural       H62C44N8O4Br6
_chemical_formula_sum              "H62 C44 N8 O4 Br6"
_cell_length_a       10.76785139935137
_cell_length_b       7.809741137816001
_cell_length_c       14.306014722347241
_cell_angle_alpha    90.0
_cell_angle_beta     97.20465536853531
_cell_angle_gamma    90.0

_space_group_name_H-M_alt    "P 1"
_space_group_IT_number       1

loop_
  _space_group_symop_operation_xyz
  'x, y, z'

loop_
  _atom_site_type_symbol
  _atom_site_label
  _atom_site_symmetry_multiplicity
  _atom_site_fract_x
  _atom_site_fract_y
  _atom_site_fract_z
  _atom_site_occupancy
  H   H1        1.0  0.5198121473400159  0.44023378359522297  0.12741148701686522  1.0000
  H   H2        1.0  0.4801878529037468  0.9402337837350483  0.8725885131227424  1.0000
  H   H3        1.0  0.416675621765909  0.4524662556213977  0.9600082955836551  1.0000
  H   H4        1.0  0.5833243784778538  0.9524662544807708  0.03999170455595251  1.0000
  H   H5        1.0  0.28911299521011213  0.7048142035523745  0.905098562674708  1.0000
  H   H6        1.0  0.7108870050336507  0.20481420341254922  0.09490143746489953  1.0000
  H   H7        1.0  0.2418285424548413  0.009713773947341726  0.9329360649223509  1.0000
  H   H8        1.0  0.7581714577889216  0.509713774087167  0.0670639352172567  1.0000
  H   H9        1.0  0.21526767404311442  0.2518306618995054  0.043001828216619645  1.0000
  H   H10       1.0  0.7847323262006485  0.7518306620393308  0.9569981719229881  1.0000
  H   H11       1.0  0.3717579978695197  0.17977036437248908  0.056392120187644605  1.0000
  H   H12       1.0  0.6282420023742431  0.6797703645123144  0.9436078799519629  1.0000
  H   H13       1.0  0.2902529460871927  0.20979070382583545  0.21416966694622028  1.0000
  H   H14       1.0  0.70974705415657  0.7097907039656608  0.7858303331933875  1.0000
  H   H15       1.0  0.45671027476964016  0.01708218078497125  0.21703593761774378  1.0000
  H   H16       1.0  0.543289725354598  0.5170821809247965  0.7829640618172963  1.0000
  H   H17       1.0  0.3417337351740405  0.8960816621838814  0.26530399242401936  1.0000
  H   H18       1.0  0.6582662650697223  0.3960816620440562  0.7346960077155883  1.0000
  H   H19       1.0  0.1284555929868822  0.004288418707993937  0.2544688108553549  1.0000
  H   H20       1.0  0.8715444063284615  0.5042884188478193  0.7455311892858668  1.0000
  H   H21       1.0  0.07259896237298002  0.16083355617485426  0.1675585629633121  1.0000
  H   H22       1.0  0.927401037751258  0.6608335563146795  0.8324414364717277  1.0000
  H   H23       1.0  0.9851099396996481  0.8933530198865314  0.1251628624823345  1.0000
  H   H24       1.0  0.014890059615695754  0.39335301974670606  0.8748371376588873  1.0000
  H   H25       1.0  0.12090699756909061  0.7891872894680327  0.14131421927590132  1.0000
  H   H26       1.0  0.8790930026746723  0.2891872893282075  0.8586857808637064  1.0000
  H   H27       1.0  0.03757610950517055  0.04217520583430127  0.9891156425126252  1.0000
  H   H28       1.0  0.9624238898101733  0.5421752059741266  0.01088435762859666  1.0000
  H   H29       1.0  0.07095625779300306  0.8213398097076755  0.9775167697229556  1.0000
  H   H30       1.0  0.9290437424507598  0.3213398095678503  0.022483230416651928  1.0000
  H   H31       1.0  0.7288061033380046  0.57511795855196  0.24535255149844856  1.0000
  H   H32       1.0  0.2711938959773393  0.07511795841213471  0.7546474486427732  1.0000
  H   H33       1.0  0.9427550135376556  0.454171843523089  0.25060033117678104  1.0000
  H   H34       1.0  0.05724498577768826  0.9541718436629143  0.7493996689644408  1.0000
  H   H35       1.0  0.9916621525915855  0.16935108304625096  0.3299047434366964  1.0000
  H   H36       1.0  0.008337847652177413  0.6693510831860762  0.6700952567029114  1.0000
  H   H37       1.0  0.9040724136683189  0.9038296040083555  0.3763580471378388  1.0000
  H   H38       1.0  0.09592758645591919  0.4038296038685302  0.6236419522972012  1.0000
  H   H39       1.0  0.6760680641155503  0.8434886629087656  0.3332444921517277  1.0000
  H   H40       1.0  0.3239319361282124  0.34348866276894024  0.66675550798788  1.0000
  H   H41       1.0  0.7330060069616737  0.7343959138707022  0.43939088036051477  1.0000
  H   H42       1.0  0.2669939932820891  0.2343959137308769  0.5606091197790929  1.0000
  H   H43       1.0  0.5338568543741532  0.8906857675880993  0.4593682096771578  1.0000
  H   H44       1.0  0.4661431457500848  0.39068576872872607  0.5406317897578821  1.0000
  H   H45       1.0  0.5089331820795081  0.11143361407793996  0.35584395949011405  1.0000
  H   H46       1.0  0.4910668181642546  0.6114336142177653  0.6441560406494936  1.0000
  H   H47       1.0  0.5605885586336886  0.22634273899817534  0.45919288844337514  1.0000
  H   H48       1.0  0.4394114416100741  0.7263427391380006  0.5408071116962325  1.0000
  H   H49       1.0  0.615441398385592  0.060451592654455925  0.602545316849759  1.0000
  H   H50       1.0  0.3845586018581709  0.5604515927942813  0.3974546832898487  1.0000
  H   H51       1.0  0.6876577770088745  0.8556299526553444  0.5976318644906502  1.0000
  H   H52       1.0  0.3123422223064692  0.3556299537959712  0.4023681356505716  1.0000
  H   H53       1.0  0.7924841312772258  0.19973475208375735  0.5621193546971057  1.0000
  H   H54       1.0  0.20751586884701226  0.6997347522235826  0.43788064473793414  1.0000
  H   H55       1.0  0.8346322414918476  0.05810448284933809  0.6481824420642173  1.0000
  H   H56       1.0  0.16536775875191528  0.5581044829891635  0.35181755807539045  1.0000
  H   H57       1.0  0.9144300918811277  0.8576450207251166  0.5466425902474513  1.0000
  H   H58       1.0  0.085569908362635  0.3576450205852913  0.4533574098921564  1.0000
  H   H59       1.0  0.9777774558552424  0.062447040355601884  0.5243370059709687  1.0000
  H   H60       1.0  0.022222544268995566  0.562447039214975  0.4756629934640712  1.0000
  H   H61       1.0  0.5260865604613449  0.5390823275324789  0.2863289000765675  1.0000
  H   H62       1.0  0.47391343873447417  0.03908232867310577  0.7136710993600864  1.0000
  C   C1        1.0  0.4473975453282823  0.684676757608298  0.16403469677226026  1.0000
  C   C2        1.0  0.5526024549154804  0.18467675746847273  0.8359653033673473  1.0000
  C   C3        1.0  0.46419632447489556  0.5500089598617885  0.10058243085467436  1.0000
  C   C4        1.0  0.5358036757688672  0.05000895972196327  0.8994175692849332  1.0000
  C   C5        1.0  0.40898983756120394  0.5582218556374784  0.00863638273836839  1.0000
  C   C6        1.0  0.5910101617541399  0.05822185549765309  0.9913636174028535  1.0000
  C   C7        1.0  0.3365976392304136  0.7011828014995363  0.9768909547957166  1.0000
  C   C8        1.0  0.6634023610133493  0.201182801359711  0.023109045343891133  1.0000
  C   C9        1.0  0.32016843603828266  0.8334422121218011  0.03797829634912939  1.0000
  C   C10       1.0  0.6798315642054801  0.3334422119819758  0.9620217037904782  1.0000
  C   C11       1.0  0.23678784594344665  0.9840883781391566  0.007934322716275343  1.0000
  C   C12       1.0  0.7632121543003161  0.4840883779993313  0.9920656774233323  1.0000
  C   C13       1.0  0.27581741794798487  0.14314261769662487  0.06636244845636896  1.0000
  C   C14       1.0  0.7241825822957779  0.6431426178364502  0.9336375516832386  1.0000
  C   C15       1.0  0.2674390428539904  0.09748021561350965  0.1688711216615327  1.0000
  C   C16       1.0  0.7325609573897723  0.597480215753335  0.8311288784780749  1.0000
  C   C17       1.0  0.36322405324865686  0.9596785524309883  0.2007903605255092  1.0000
  C   C18       1.0  0.636775946995106  0.4596785522911631  0.7992096396140985  1.0000
  C   C19       1.0  0.1335423786074063  0.048631882068528066  0.18217603988719072  1.0000
  C   C20       1.0  0.8664576215168318  0.5486318822083533  0.8178239595478491  1.0000
  C   C21       1.0  0.09995343576973051  0.9379919181352756  0.01716749940612296  1.0000
  C   C22       1.0  0.9000465644740322  0.4379919179954502  0.9828325007334846  1.0000
  C   C23       1.0  0.6605878531428542  0.3617960826279272  0.32042973900648947  1.0000
  C   C24       1.0  0.3394121469813839  0.8617960827677524  0.6795702604285505  1.0000
  C   C25       1.0  0.751983509762082  0.4515647430263248  0.27866492339078  1.0000
  C   C26       1.0  0.24801649036215612  0.9515647431661501  0.7213350760442601  1.0000
  C   C27       1.0  0.8709959483481662  0.3840154067947365  0.28260197373824036  1.0000
  C   C28       1.0  0.12900405177607188  0.8840154069345618  0.7173980256967996  1.0000
  C   C29       1.0  0.8990391655627219  0.2264895505223689  0.3268806307863508  1.0000
  C   C30       1.0  0.10096083468104074  0.7264895506621942  0.6731193693532567  1.0000
  C   C31       1.0  0.8083336269710362  0.13858515806103527  0.36761885243275205  1.0000
  C   C32       1.0  0.19166637327272665  0.6385851582008606  0.6323811477068557  1.0000
  C   C33       1.0  0.833985398011597  0.9670394519775354  0.41416836978532323  1.0000
  C   C34       1.0  0.166014601184222  0.4670394518377102  0.5858316296513308  1.0000
  C   C35       1.0  0.7139474605436248  0.8611639184087965  0.40742902025013394  1.0000
  C   C36       1.0  0.28605253877171893  0.3611639182689711  0.5925709798910878  1.0000
  C   C37       1.0  0.6227280633654373  0.9604275977446255  0.4603709625166704  1.0000
  C   C38       1.0  0.37727193594990655  0.4604275976048002  0.5396290376245514  1.0000
  C   C39       1.0  0.5887417491246809  0.12938992626874538  0.4104517804785248  1.0000
  C   C40       1.0  0.41125825007113803  0.6293899264085706  0.589548218958129  1.0000
  C   C41       1.0  0.6757175506100112  0.9817796498878842  0.563707156890475  1.0000
  C   C42       1.0  0.32428244963375163  0.48177964974805887  0.43629284324913276  1.0000
  C   C43       1.0  0.8917751972942061  0.9855293477950532  0.5174420798753162  1.0000
  C   C44       1.0  0.10822480283003198  0.48552934765522787  0.4825579195597236  1.0000
  N   N1        1.0  0.37553707318696533  0.824312405033222  0.12981776055823632  1.0000
  N   N2        1.0  0.6244629270567975  0.32431240489339674  0.8701822395813713  1.0000
  N   N3        1.0  0.08251096884524507  0.9084286143169155  0.11752107559198284  1.0000
  N   N4        1.0  0.9174890313985177  0.4084286141770901  0.8824789245476249  1.0000
  N   N5        1.0  0.6909610047216  0.2079708445309889  0.3646049304323972  1.0000
  N   N6        1.0  0.30903899552216274  0.7079708446708142  0.6353950697072105  1.0000
  N   N7        1.0  0.8015498763591933  0.06585796390990671  0.5753955048159718  1.0000
  N   N8        1.0  0.19845012376504467  0.565857964049732  0.42460449461906813  1.0000
  O   O1        1.0  0.49324078830066065  0.6890217915090618  0.25116318337431354  1.0000
  O   O2        1.0  0.5067592119431023  0.1890217913692365  0.7488368167652941  1.0000
  O   O3        1.0  0.544967216870704  0.41121922523773974  0.32083199114103816  1.0000
  O   O4        1.0  0.45503278337305886  0.9112192240971129  0.6791680089985694  1.0000
  Br  Br1       1.0  0.7739636408850575  0.4766911187329178  0.563439417195908  1.0000
  Br  Br2       1.0  0.2260363593587052  0.976691117592291  0.4365605829436997  1.0000
  Br  Br3       1.0  0.15481359055484772  0.5285644808394231  0.1974868943415063  1.0000
  Br  Br4       1.0  0.845186409688915  0.028564480699597786  0.8025131057981013  1.0000
  Br  Br5       1.0  0.8044502235622341  0.8568433257790853  0.16224538303980598  1.0000
  Br  Br6       1.0  0.19554977575310967  0.35684332691971216  0.8377546171014159  1.0000
