data_image0
_chemical_formula_structural       H124C88N16O8I20
_chemical_formula_sum              "H124 C88 N16 O8 I20"
_cell_length_a       7.800873380234355
_cell_length_b       19.270543482548998
_cell_length_c       19.84146734175451
_cell_angle_alpha    90.0
_cell_angle_beta     90.0
_cell_angle_gamma    90.0

_space_group_name_H-M_alt    "P 1"
_space_group_IT_number       1

loop_
  _space_group_symop_operation_xyz
  'x, y, z'

loop_
  _atom_site_type_symbol
  _atom_site_label
  _atom_site_symmetry_multiplicity
  _atom_site_fract_x
  _atom_site_fract_y
  _atom_site_fract_z
  _atom_site_occupancy
  H   H1        1.0  0.2756097779317384  0.4322899864004299  0.5056969883918249  1.0000
  H   H2        1.0  0.22439022205324055  0.5677100134672958  0.005696988436037946  1.0000
  H   H3        1.0  0.7243902220382195  0.9322899868532195  0.9943030114755357  1.0000
  H   H4        1.0  0.7756097779167174  0.06771001353343291  0.4943030115197489  1.0000
  H   H5        1.0  0.2712072401227004  0.47452135993366623  0.6244134587731787  1.0000
  H   H6        1.0  0.22879275986227857  0.5254786399340593  0.12441345881739185  1.0000
  H   H7        1.0  0.7287927598472574  0.9745213598675292  0.8755865410941819  1.0000
  H   H8        1.0  0.7712072401076793  0.02547864000019656  0.37558654113839496  1.0000
  H   H9        1.0  0.014503704198900994  0.5388347121295881  0.6672267091930382  1.0000
  H   H10       1.0  0.48549629578607795  0.4611652882570642  0.1672267092372514  1.0000
  H   H11       1.0  0.9854962957710569  0.03883471167679856  0.8327732906743223  1.0000
  H   H12       1.0  0.5145037041838799  0.9611652881909271  0.3327732907185355  1.0000
  H   H13       1.0  0.7081934279305059  0.5618797456234362  0.6486105799704432  1.0000
  H   H14       1.0  0.7918065720244309  0.4381202547632161  0.14861058001465638  1.0000
  H   H15       1.0  0.29180657203945204  0.061879745170646774  0.8513894198969173  1.0000
  H   H16       1.0  0.2081934279455269  0.9381202546970788  0.3513894199411305  1.0000
  H   H17       1.0  0.5425879762033572  0.5061979590162395  0.5558981767839692  1.0000
  H   H18       1.0  0.9574120237515797  0.4938020408514861  0.05589817682818242  1.0000
  H   H19       1.0  0.4574120237666008  0.006197959082376716  0.9441018230833912  1.0000
  H   H20       1.0  0.04258797621837817  0.9938020407853488  0.44410182312760443  1.0000
  H   H21       1.0  0.46392598669397667  0.5919303148003987  0.5701383433570033  1.0000
  H   H22       1.0  0.03607401329100228  0.408069685067327  0.0701383434012165  1.0000
  H   H23       1.0  0.5360740132759811  0.09193031486653587  0.9298616565103572  1.0000
  H   H24       1.0  0.9639259866789557  0.9080696850011897  0.4298616565545703  1.0000
  H   H25       1.0  0.5104697097237552  0.5741772700920432  0.44759871016750535  1.0000
  H   H26       1.0  0.9895302902311817  0.4258227302946091  0.9475987101232922  1.0000
  H   H27       1.0  0.4895302902462027  0.0741772696392537  0.05240128978828142  1.0000
  H   H28       1.0  0.010469709738776247  0.9258227302284721  0.5524012902480633  1.0000
  H   H29       1.0  0.703673289186895  0.4822855057729101  0.44088968065334905  1.0000
  H   H30       1.0  0.7963267107680418  0.5177144940948156  0.9408896806091358  1.0000
  H   H31       1.0  0.2963267107830629  0.9822855057067729  0.05911031930243777  1.0000
  H   H32       1.0  0.20367328920191605  0.017714494160952735  0.5591103192582246  1.0000
  H   H33       1.0  0.8288306609850088  0.5529781352378579  0.41140790493966467  1.0000
  H   H34       1.0  0.6711693389699281  0.4470218651487945  0.9114079048954514  1.0000
  H   H35       1.0  0.1711693389849491  0.052978135303995005  0.08859209501612215  1.0000
  H   H36       1.0  0.32883066100002983  0.9470218650826574  0.588592094971909  1.0000
  H   H37       1.0  0.7137639464970684  0.672555838486692  0.42583471849481014  1.0000
  H   H38       1.0  0.7862360534578683  0.3274441613810336  0.925834718450597  1.0000
  H   H39       1.0  0.2862360534728894  0.17255583855282922  0.07416528146097669  1.0000
  H   H40       1.0  0.21376394651208958  0.8274441613148964  0.5741652814167635  1.0000
  H   H41       1.0  0.5500788271826925  0.6882622169951182  0.48709284215395093  1.0000
  H   H42       1.0  0.9499211727722443  0.31173778287260745  0.9870928421097378  1.0000
  H   H43       1.0  0.4499211727872654  0.1882622170612554  0.012907157801835954  1.0000
  H   H44       1.0  0.05007882719771357  0.8117377828064702  0.5129071577576229  1.0000
  H   H45       1.0  0.9232209393691811  0.6679572733201077  0.5077735742254387  1.0000
  H   H46       1.0  0.5767790605857557  0.3320427265476181  0.007773574269651834  1.0000
  H   H47       1.0  0.07677906060077679  0.1679572733862448  0.9922264256419219  1.0000
  H   H48       1.0  0.42322093938420213  0.8320427264814808  0.49222642568613506  1.0000
  H   H49       1.0  0.792634694682641  0.7356149629530281  0.5280653007930968  1.0000
  H   H50       1.0  0.7073653052722958  0.26438503691469745  0.02806530083730991  1.0000
  H   H51       1.0  0.2073653052873168  0.23561496301916532  0.9719346995782587  1.0000
  H   H52       1.0  0.2926346946976621  0.7643850368485603  0.4719346991184769  1.0000
  H   H53       1.0  0.6600109819812667  0.6839926503337259  0.6158890307615433  1.0000
  H   H54       1.0  0.8399890179736701  0.3160073500529264  0.11588903080575651  1.0000
  H   H55       1.0  0.33998901798869113  0.18399264988093647  0.8841109691058171  1.0000
  H   H56       1.0  0.1600109819962878  0.8160073499867893  0.38411096915003035  1.0000
  H   H57       1.0  0.8857813097579611  0.6677149480320725  0.6250092645065138  1.0000
  H   H58       1.0  0.6142186901969757  0.33228505183565304  0.12500926455072703  1.0000
  H   H59       1.0  0.11421869021199679  0.16771494809820978  0.8749907353608467  1.0000
  H   H60       1.0  0.3857813097729822  0.8322850517695158  0.3749907354050598  1.0000
  H   H61       1.0  0.3146841373197949  0.49986524867464943  0.3580701259452197  1.0000
  H   H62       1.0  0.18531586266518407  0.500134751712003  0.8580701259010064  1.0000
  H   H63       1.0  0.685315862650163  0.9998652486085122  0.14192987451456213  1.0000
  H   H64       1.0  0.8146841373047737  0.00013475125921339707  0.641929874470349  1.0000
  H   H65       1.0  0.5914880584642155  0.5271978623332617  0.29965869547802537  1.0000
  H   H66       1.0  0.908511942772629  0.47280213753446404  0.7996586959378071  1.0000
  H   H67       1.0  0.4085119427876502  0.02719786239939885  0.20034130447776144  1.0000
  H   H68       1.0  0.09148805719732876  0.9728021374683269  0.7003413044335483  1.0000
  H   H69       1.0  0.7892572843958959  0.4311205061509284  0.2684864671671474  1.0000
  H   H70       1.0  0.7107427155590409  0.5688794942357239  0.7684864671229342  1.0000
  H   H71       1.0  0.21074271557406196  0.9311205060847914  0.2315135327886394  1.0000
  H   H72       1.0  0.28925728441091697  0.06887949430186108  0.7315135327444262  1.0000
  H   H73       1.0  0.8161556686885655  0.3085717211548748  0.243788814440186  1.0000
  H   H74       1.0  0.6838443312663713  0.6914282787128507  0.7437888143959728  1.0000
  H   H75       1.0  0.18384433128139238  0.8085717210887376  0.25621118551560085  1.0000
  H   H76       1.0  0.3161556687035866  0.191428278778988  0.7562111854713877  1.0000
  H   H77       1.0  0.549379474721233  0.23482961049323867  0.2336659406355191  1.0000
  H   H78       1.0  0.9506205252337038  0.765170389374487  0.7336659410953009  1.0000
  H   H79       1.0  0.45062052524872476  0.7348296104271015  0.2663340593202677  1.0000
  H   H80       1.0  0.04937947473625417  0.26517038944062415  0.7663340592760546  1.0000
  H   H81       1.0  0.7280392185816225  0.18413014418681317  0.2599539767477655  1.0000
  H   H82       1.0  0.7719607813733143  0.8158698556809124  0.7599539767035524  1.0000
  H   H83       1.0  0.27196078138833535  0.684130144120676  0.24004602320802135  1.0000
  H   H84       1.0  0.22803921859664358  0.3158698557470496  0.7400460231638081  1.0000
  H   H85       1.0  0.47108843598351013  0.16149090620190232  0.3342887038420762  1.0000
  H   H86       1.0  0.028911564001468826  0.8385090936658234  0.834288703797863  1.0000
  H   H87       1.0  0.5289115639864478  0.6614909061357651  0.1657112961137106  1.0000
  H   H88       1.0  0.971088435968489  0.33850909373196053  0.6657112960694974  1.0000
  H   H89       1.0  0.29983512819557295  0.25766684652648975  0.3295302372239692  1.0000
  H   H90       1.0  0.200164871789406  0.7423331533412358  0.8295302371797559  1.0000
  H   H91       1.0  0.7001648717743849  0.7576668469792793  0.17046976273181766  1.0000
  H   H92       1.0  0.7998351281805518  0.24233315340737308  0.6704697626876045  1.0000
  H   H93       1.0  0.38514639240430015  0.2657861826594686  0.41127026693371677  1.0000
  H   H94       1.0  0.11485360758067881  0.7342138172082571  0.9112702668895035  1.0000
  H   H95       1.0  0.6148536075656577  0.7657861825933314  0.08872973302207007  1.0000
  H   H96       1.0  0.8851463923892792  0.23421381727439425  0.5887297329778569  1.0000
  H   H97       1.0  0.6150822281204432  0.1839392170340148  0.44443250784396066  1.0000
  H   H98       1.0  0.8849177718344936  0.8160607833526375  0.9444325077997474  1.0000
  H   H99       1.0  0.3849177718495147  0.6839392169678776  0.05556749211182616  1.0000
  H   H100      1.0  0.11508222813546423  0.316060782899848  0.555567492067613  1.0000
  H   H101      1.0  0.7557428204049234  0.1488422816199993  0.38198711261895013  1.0000
  H   H102      1.0  0.7442571795500134  0.851157718766653  0.8819871125747369  1.0000
  H   H103      1.0  0.24425717956503443  0.6488422815538621  0.11801288733683674  1.0000
  H   H104      1.0  0.2557428204199445  0.35115771883279023  0.6180128872926235  1.0000
  H   H105      1.0  0.7421726655209558  0.2912757320561848  0.43633528613990336  1.0000
  H   H106      1.0  0.7578273344339809  0.7087242678115409  0.9363352860956902  1.0000
  H   H107      1.0  0.2578273344490021  0.7912757319900476  0.06366471381588353  1.0000
  H   H108      1.0  0.2421726655359769  0.20872426787767803  0.5636647137716704  1.0000
  H   H109      1.0  0.9013483795052656  0.23182167353222394  0.4361495655005711  1.0000
  H   H110      1.0  0.5986516204496711  0.7681783268544284  0.936149565456358  1.0000
  H   H111      1.0  0.0986516204646922  0.7318216734660867  0.06385043445521575  1.0000
  H   H112      1.0  0.4013483795202868  0.2681783269205656  0.5638504344110026  1.0000
  H   H113      1.0  0.971247307922896  0.2413221378115938  0.3259410424949012  1.0000
  H   H114      1.0  0.5287526920320407  0.7586778620561319  0.8259410424506881  1.0000
  H   H115      1.0  0.028752692047061743  0.7413221377454566  0.17405895796488063  1.0000
  H   H116      1.0  0.47124730793791725  0.258677862122269  0.6740589579206674  1.0000
  H   H117      1.0  0.9482642877838596  0.32763224637216437  0.3565353347185691  1.0000
  H   H118      1.0  0.5517357121710771  0.6723677534955613  0.8565353346743558  1.0000
  H   H119      1.0  0.05173571218609826  0.8276322463060272  0.14346466523721776  1.0000
  H   H120      1.0  0.44826428779888067  0.17236775356169845  0.6434646651930046  1.0000
  H   H121      1.0  0.11640525178896313  0.41902611606737633  0.40567389958409406  1.0000
  H   H122      1.0  0.3835947481960158  0.5809738838003492  0.9056738995398809  1.0000
  H   H123      1.0  0.8835947494629025  0.9190261160012393  0.09432610037169277  1.0000
  H   H124      1.0  0.6164052517739421  0.08097388386648645  0.5943261003274797  1.0000
  C   C1        1.0  0.028018171728539685  0.4761616302264384  0.4824511657893108  1.0000
  C   C2        1.0  0.47198182825643925  0.5238383696412872  0.9824511657450976  1.0000
  C   C3        1.0  0.9719818282414182  0.9761616301603013  0.017548834166476037  1.0000
  C   C4        1.0  0.5280181717135186  0.02383836970742436  0.5175488341222628  1.0000
  C   C5        1.0  0.1672709601089307  0.46187803307468905  0.5251818971105674  1.0000
  C   C6        1.0  0.33272903987604824  0.5381219673119633  0.025181897154780596  1.0000
  C   C7        1.0  0.8327290398610272  0.9618780330085518  0.974818102756793  1.0000
  C   C8        1.0  0.6672709600939096  0.03812196685917377  0.4748181028010062  1.0000
  C   C9        1.0  0.16323355961992878  0.4850876405465816  0.5909095677277285  1.0000
  C   C10       1.0  0.33676644036505016  0.5149123598400708  0.09090956777194173  1.0000
  C   C11       1.0  0.8367664403500291  0.9850876404804445  0.9090904321396319  1.0000
  C   C12       1.0  0.6632335596049077  0.014912359387281195  0.4090904321838451  1.0000
  C   C13       1.0  0.02078116668458601  0.5214719636267762  0.6151014015136241  1.0000
  C   C14       1.0  0.47921883330039294  0.4785280362409495  0.11510140155783728  1.0000
  C   C15       1.0  0.9792188332853718  0.021471963692913345  0.8848985983537364  1.0000
  C   C16       1.0  0.520781166669565  0.9785280361748123  0.38489859839794954  1.0000
  C   C17       1.0  0.886131120589004  0.536609265813617  0.5722871415918132  1.0000
  C   C18       1.0  0.6138688793659328  0.4633907340541087  0.07228714163602638  1.0000
  C   C19       1.0  0.11386887938095391  0.03660926587975416  0.9277128582755473  1.0000
  C   C20       1.0  0.386131120604025  0.9633907339879715  0.4277128583197604  1.0000
  C   C21       1.0  0.7319164536713031  0.5770550420682317  0.596007306128716  1.0000
  C   C22       1.0  0.7680835462836336  0.422944957799494  0.09600730617292917  1.0000
  C   C23       1.0  0.2680835462986548  0.07705504213436884  0.9039926937386445  1.0000
  C   C24       1.0  0.2319164536863242  0.9229449582522836  0.40399269378285774  1.0000
  C   C25       1.0  0.5747207769529661  0.5616241456708735  0.5527841092134739  1.0000
  C   C26       1.0  0.9252792230019706  0.4383758547157789  0.05278410925768708  1.0000
  C   C27       1.0  0.4252792230169917  0.06162414521808391  0.9472158911578816  1.0000
  C   C28       1.0  0.07472077696798725  0.9383758546496417  0.44721589120209476  1.0000
  C   C29       1.0  0.6223927518554517  0.5810955944309873  0.4807172894883579  1.0000
  C   C30       1.0  0.8776072480994851  0.418904405955665  0.9807172899481397  1.0000
  C   C31       1.0  0.3776072481145061  0.08109559397819782  0.019282710467428982  1.0000
  C   C32       1.0  0.12239275187047283  0.9189044058895278  0.5192827104232158  1.0000
  C   C33       1.0  0.7607806011872106  0.5321506261246114  0.45551355070298943  1.0000
  C   C34       1.0  0.7392193987677262  0.46784937374311425  0.9555135506587763  1.0000
  C   C35       1.0  0.2392193987827473  0.03215062619074862  0.044486449252797454  1.0000
  C   C36       1.0  0.2607806012022316  0.9678493741959037  0.5444864492085844  1.0000
  C   C37       1.0  0.6662232556124206  0.6580716284148399  0.47601101659071327  1.0000
  C   C38       1.0  0.8337767443425163  0.3419283714528857  0.9760110165465  1.0000
  C   C39       1.0  0.3337767443575373  0.15807162848097708  0.023988983365073602  1.0000
  C   C40       1.0  0.16622325562744167  0.8419283713867486  0.5239889833208604  1.0000
  C   C41       1.0  0.7702568644716915  0.6550429297145228  0.5956871372676846  1.0000
  C   C42       1.0  0.7297431354832453  0.3449570701532028  0.09568713731189782  1.0000
  C   C43       1.0  0.2297431354982663  0.15504292978066  0.9043128631036709  1.0000
  C   C44       1.0  0.2702568644867126  0.8449570700870657  0.40431286264388905  1.0000
  C   C45       1.0  0.36210096002290704  0.38936340725391483  0.35944339988361734  1.0000
  C   C46       1.0  0.13789903996207187  0.6106365931327375  0.8594433998394042  1.0000
  C   C47       1.0  0.6378990399470509  0.8893634071877776  0.14055660007216947  1.0000
  C   C48       1.0  0.8621009600078859  0.11063659319887471  0.6405566005319513  1.0000
  C   C49       1.0  0.4049348843430531  0.45913288787170575  0.3441057756667035  1.0000
  C   C50       1.0  0.09506511564192585  0.5408671119960199  0.8441057756224903  1.0000
  C   C51       1.0  0.5950651156269049  0.9591328878055686  0.15589422428908337  1.0000
  C   C52       1.0  0.904934884328032  0.04086711206215704  0.6558942242448702  1.0000
  C   C53       1.0  0.556587288162029  0.47369633597861294  0.3114452950259256  1.0000
  C   C54       1.0  0.9434127117929079  0.5263036638891128  0.8114452949817124  1.0000
  C   C55       1.0  0.4434127118079289  0.9736963359124757  0.18855470492986126  1.0000
  C   C56       1.0  0.056587288177050055  0.0263036639552499  0.6885547048856481  1.0000
  C   C57       1.0  0.6678982616486816  0.4196868997142689  0.29307695997678135  1.0000
  C   C58       1.0  0.8321017383062553  0.5803131006723834  0.7930769599325682  1.0000
  C   C59       1.0  0.3321017383212763  0.9196868996481318  0.20692304048300048  1.0000
  C   C60       1.0  0.1678982616637026  0.08031310021959391  0.7069230404387873  1.0000
  C   C61       1.0  0.6262067286436644  0.3517551498295043  0.3075419289761266  1.0000
  C   C62       1.0  0.8737932713112724  0.6482448500382214  0.8075419289319133  1.0000
  C   C63       1.0  0.3737932713262934  0.8517551497633671  0.19245807097966028  1.0000
  C   C64       1.0  0.1262067286586855  0.14824485010435856  0.6924580709354471  1.0000
  C   C65       1.0  0.7434702292047413  0.29261300726190675  0.28865378610116216  1.0000
  C   C66       1.0  0.7565297707501957  0.7073869931247456  0.788653786056949  1.0000
  C   C67       1.0  0.2565297707652167  0.7926130071957695  0.21134621385462468  1.0000
  C   C68       1.0  0.24347022921976225  0.20738699267195607  0.7113462138104115  1.0000
  C   C69       1.0  0.641349326689071  0.22638785221344143  0.2748171128717455  1.0000
  C   C70       1.0  0.8586506732658659  0.7736121481732109  0.7748171128275323  1.0000
  C   C71       1.0  0.35865067328088696  0.7263878521473043  0.22518288708404138  1.0000
  C   C72       1.0  0.14134932670409195  0.27361214772042136  0.7251828870398283  1.0000
  C   C73       1.0  0.5475884662893566  0.20906984661063024  0.3402606507731706  1.0000
  C   C74       1.0  0.9524115336655801  0.7909301532570954  0.8402606507289575  1.0000
  C   C75       1.0  0.45241153368060116  0.7090698465444931  0.15973934918261623  1.0000
  C   C76       1.0  0.047588466304377755  0.2909301533232325  0.6597393491384032  1.0000
  C   C77       1.0  0.41942175068373  0.2661558826633347  0.35758829918133506  1.0000
  C   C78       1.0  0.08057824930124889  0.733844117204391  0.8575882991371219  1.0000
  C   C79       1.0  0.5805782492862278  0.7661558825971975  0.14241170077445175  1.0000
  C   C80       1.0  0.919421750668709  0.23384411727052817  0.6424117007302387  1.0000
  C   C81       1.0  0.677324630519931  0.19395254904900144  0.39576982108953335  1.0000
  C   C82       1.0  0.8226753694350059  0.8060474508187242  0.8957698210453202  1.0000
  C   C83       1.0  0.32267536945002684  0.693952549501791  0.1042301788662535  1.0000
  C   C84       1.0  0.17732463053495212  0.30604745088486135  0.6042301788220403  1.0000
  C   C85       1.0  0.8783262804086381  0.28014694265830353  0.3435962760502751  1.0000
  C   C86       1.0  0.6216737195462987  0.7198530577283488  0.843596276006062  1.0000
  C   C87       1.0  0.12167371956131984  0.7801469425921664  0.15640372390551174  1.0000
  C   C88       1.0  0.3783262804236591  0.21985305779448597  0.6564037243652936  1.0000
  N   N1        1.0  0.8939141093699572  0.5155547407885485  0.5064228248308311  1.0000
  N   N2        1.0  0.6060858905849796  0.4844452595981039  0.0064228248750443015  1.0000
  N   N3        1.0  0.10608589060000077  0.015554740335758864  0.9935771755405244  1.0000
  N   N4        1.0  0.3939141093849782  0.9844452595319667  0.49357717558473757  1.0000
  N   N5        1.0  0.7993903933629364  0.680695120606163  0.5256379430190753  1.0000
  N   N6        1.0  0.7006096065920004  0.3193048797804893  0.025637943063288485  1.0000
  N   N7        1.0  0.2006096066070215  0.18069512015337352  0.9743620568482853  1.0000
  N   N8        1.0  0.2993903933779574  0.8193048797143522  0.4743620568924984  1.0000
  N   N9        1.0  0.476879924679439  0.33741103596212324  0.3410371513078653  1.0000
  N   N10       1.0  0.023120075305539917  0.6625889644245291  0.8410371512636522  1.0000
  N   N11       1.0  0.5231200752905188  0.8374110358959861  0.15896284864792154  1.0000
  N   N12       1.0  0.976879924664418  0.16258896397173958  0.6589628491077034  1.0000
  N   N13       1.0  0.8004790701797552  0.25231439032340414  0.4067190521246202  1.0000
  N   N14       1.0  0.6995209297751817  0.7476856100632482  0.906719052080407  1.0000
  N   N15       1.0  0.19952092979020272  0.752314390257267  0.0932809478311667  1.0000
  N   N16       1.0  0.3004790701947762  0.24768560961045868  0.5932809477869536  1.0000
  O   O1        1.0  0.013134442133057912  0.4556749158606753  0.4202363996766124  1.0000
  O   O2        1.0  0.48686555785192104  0.5443250840070504  0.9202363996323992  1.0000
  O   O3        1.0  0.9868655578368999  0.9556749157945381  0.07976360027917441  1.0000
  O   O4        1.0  0.5131344421180368  0.04432508407318751  0.5797636002349612  1.0000
  O   O5        1.0  0.22470737372067673  0.36951855335312517  0.3891081968395038  1.0000
  O   O6        1.0  0.27529262626430223  0.6304814465146005  0.8891081967952907  1.0000
  O   O7        1.0  0.7752926262492812  0.8695185532869879  0.110891803116283  1.0000
  O   O8        1.0  0.7247073737056557  0.13048144658073768  0.6108918030720699  1.0000
  I   I1        1.0  0.7605165333194742  0.8137751347906296  0.3267145518193704  1.0000
  I   I2        1.0  0.7394834666354626  0.18622486559602278  0.8267145517751573  1.0000
  I   I3        1.0  0.2394834666504837  0.3137751348567668  0.1732854481364164  1.0000
  I   I4        1.0  0.26051653333449526  0.6862248655298856  0.6732854480922033  1.0000
  I   I5        1.0  0.8649963537540823  0.6734111890384253  0.2826006254184714  1.0000
  I   I6        1.0  0.6350036462008545  0.32658881082930025  0.7826006253742582  1.0000
  I   I7        1.0  0.13500364621587554  0.17341118910456257  0.2173993745373154  1.0000
  I   I8        1.0  0.3649963537691034  0.8265888112820898  0.7173993744931022  1.0000
  I   I9        1.0  0.015536348828207616  0.543122911373934  0.23673152036066364  1.0000
  I   I10       1.0  0.4844636511567713  0.4568770884937917  0.7367315203164505  1.0000
  I   I11       1.0  0.9844636511417503  0.04312291144007111  0.2632684800991182  1.0000
  I   I12       1.0  0.5155363488131866  0.9568770884276545  0.763268480054905  1.0000
  I   I13       1.0  0.6170025361769688  0.3514399672294131  0.5292599916691145  1.0000
  I   I14       1.0  0.8829974637779681  0.6485600326383126  0.029259991713327743  1.0000
  I   I15       1.0  0.38299746379298916  0.8514399671632759  0.9707400081982458  1.0000
  I   I16       1.0  0.11700253619198982  0.14856003270444976  0.4707400082424591  1.0000
  I   I17       1.0  0.6857614922393842  0.8478135421969388  0.5544792041084579  1.0000
  I   I18       1.0  0.8142385077155526  0.1521864576707868  0.05447920415267109  1.0000
  I   I19       1.0  0.3142385077305737  0.347813542263076  0.9455207957589026  1.0000
  I   I20       1.0  0.18576149225440522  0.6521864576046497  0.44552079580311577  1.0000
