data_image0
_chemical_formula_structural       H124C88N16O8I28
_chemical_formula_sum              "H124 C88 N16 O8 I28"
_cell_length_a       7.851013469856215
_cell_length_b       19.24752022696769
_cell_length_c       21.35700086525989
_cell_angle_alpha    90.0
_cell_angle_beta     90.0
_cell_angle_gamma    90.0

_space_group_name_H-M_alt    "P 1"
_space_group_IT_number       1

loop_
  _space_group_symop_operation_xyz
  'x, y, z'

loop_
  _atom_site_type_symbol
  _atom_site_label
  _atom_site_symmetry_multiplicity
  _atom_site_fract_x
  _atom_site_fract_y
  _atom_site_fract_z
  _atom_site_occupancy
  H   H1        1.0  0.18295160943422833  0.4837760667451424  0.404171614472375  1.0000
  H   H2        1.0  0.3170483912117892  0.5162239334124005  0.9041716148174633  1.0000
  H   H3        1.0  0.8170483905840858  0.9837760665641401  0.09582838540448291  1.0000
  H   H4        1.0  0.6829516088065251  0.016223933593402746  0.5958283852813407  1.0000
  H   H5        1.0  0.9232425530576434  0.44391338048985035  0.347075118213692  1.0000
  H   H6        1.0  0.5767574463329673  0.5560866196676925  0.84707511809055  1.0000
  H   H7        1.0  0.07675744696067074  0.943913380308848  0.1529248821313964  1.0000
  H   H8        1.0  0.4232425536853468  0.05608661984869476  0.6529248820082544  1.0000
  H   H9        1.0  0.7193412508695429  0.5323383978391182  0.30406215980274426  1.0000
  H   H10       1.0  0.780658748521068  0.46766160231842474  0.8040621601478327  1.0000
  H   H11       1.0  0.2806587491487713  0.03233839802012044  0.1959378400741137  1.0000
  H   H12       1.0  0.21934125149724623  0.9676616021374224  0.6959378399509716  1.0000
  H   H13       1.0  0.6829017260746326  0.6491108580571838  0.2693630213480817  1.0000
  H   H14       1.0  0.8170982733159782  0.350889142100359  0.7693630212249396  1.0000
  H   H15       1.0  0.31709827394368156  0.14911085771863872  0.23063697852877618  1.0000
  H   H16       1.0  0.182901726702336  0.850889142438904  0.7306369784056341  1.0000
  H   H17       1.0  0.7539668085817727  0.7771778880398996  0.2721691101045552  1.0000
  H   H18       1.0  0.7460331908088381  0.2228221121176432  0.7721691104496436  1.0000
  H   H19       1.0  0.24603319143654148  0.27717788822090195  0.2278308897723027  1.0000
  H   H20       1.0  0.25396680920947606  0.7228221119366409  0.7278308896491607  1.0000
  H   H21       1.0  0.9393540742626015  0.7276247207355907  0.25655604523164977  1.0000
  H   H22       1.0  0.5606459251280094  0.2723752794219521  0.7565560451085076  1.0000
  H   H23       1.0  0.060645925755712655  0.22762472039704557  0.2434439551134387  1.0000
  H   H24       1.0  0.43935407489030487  0.7723752792409497  0.7434439549902966  1.0000
  H   H25       1.0  0.9972412428103233  0.8138586688196909  0.34198612886140933  1.0000
  H   H26       1.0  0.5027587578540086  0.18614133133785193  0.8419861292064978  1.0000
  H   H27       1.0  0.0027587572079909666  0.31385866848114574  0.15801387101544856  1.0000
  H   H28       1.0  0.4972412421643057  0.6861413311568496  0.6580138708923065  1.0000
  H   H29       1.0  0.17723643773413167  0.720166499712455  0.34742080579625934  1.0000
  H   H30       1.0  0.3227635629118859  0.2798335004450878  0.8474208056731173  1.0000
  H   H31       1.0  0.8227635622841826  0.22016649937390986  0.15257919408059853  1.0000
  H   H32       1.0  0.6772364371064283  0.7798335002640855  0.652579194425687  1.0000
  H   H33       1.0  0.092591693135041  0.7218513359727938  0.42369495825227077  1.0000
  H   H34       1.0  0.40740830751097656  0.278148664184749  0.9236949585973592  1.0000
  H   H35       1.0  0.9074083068832731  0.22185133615379615  0.07630504162458715  1.0000
  H   H36       1.0  0.5925916925073376  0.7781486640037467  0.576305041501445  1.0000
  H   H37       1.0  0.8462558694504034  0.7989687278496094  0.44510216954024184  1.0000
  H   H38       1.0  0.6537441299402074  0.2010312723079335  0.9451021694170998  1.0000
  H   H39       1.0  0.15374413056791075  0.2989687275110642  0.054897830336616056  1.0000
  H   H40       1.0  0.34625587007810676  0.7010312721269312  0.5548978306817045  1.0000
  H   H41       1.0  0.7137194161638117  0.8281883443699761  0.3823165683006418  1.0000
  H   H42       1.0  0.786280583226799  0.17181165578756666  0.8823165681774998  1.0000
  H   H43       1.0  0.2862805838545024  0.32818834455097845  0.11768343157621607  1.0000
  H   H44       1.0  0.21371941679151515  0.6718116556065643  0.6176834319213046  1.0000
  H   H45       1.0  0.5626634137058616  0.7501328144999505  0.43509783459883383  1.0000
  H   H46       1.0  0.9373365869584701  0.24986718565759236  0.9350978344756917  1.0000
  H   H47       1.0  0.43733658631245254  0.25013281416140537  0.06490216574625458  1.0000
  H   H48       1.0  0.06266341305984412  0.74986718547659  0.5649021656231125  1.0000
  H   H49       1.0  0.7219195664052022  0.6925948617174235  0.4452607887219038  1.0000
  H   H50       1.0  0.7780804342591296  0.3074051384401193  0.9452607890669922  1.0000
  H   H51       1.0  0.2780804336131121  0.19259486137887838  0.054739211154954164  1.0000
  H   H52       1.0  0.22191956575918453  0.8074051382591171  0.5547392110318121  1.0000
  H   H53       1.0  0.5128423948651994  0.7258498895055325  0.33243062941242263  1.0000
  H   H54       1.0  0.9871576045254115  0.27415011013246293  0.8324306297575111  1.0000
  H   H55       1.0  0.48715760515311485  0.2258498896865348  0.1675693704644353  1.0000
  H   H56       1.0  0.01284239549290272  0.774150110471008  0.6675693703412933  1.0000
  H   H57       1.0  0.5331358602390294  0.6440821609128947  0.37102667036407283  1.0000
  H   H58       1.0  0.9668641391515815  0.35591783924464815  0.8710266702409307  1.0000
  H   H59       1.0  0.46686413977928487  0.14408216057434955  0.1289733295127851  1.0000
  H   H60       1.0  0.033135860866732716  0.8559178390636458  0.6289733298578736  1.0000
  H   H61       1.0  0.23369694078917458  0.5744205757222275  0.5344130003087448  1.0000
  H   H62       1.0  0.26630305985684294  0.4255794244353153  0.03441300043188701  1.0000
  H   H63       1.0  0.7663030592291395  0.0744205759032298  0.9655869997900594  1.0000
  H   H64       1.0  0.7336969401614712  0.9255794242543129  0.4655869994449709  1.0000
  H   H65       1.0  0.252977538202641  0.5474800725360831  0.6492348564050717  1.0000
  H   H66       1.0  0.2470224611696556  0.45251992762145965  0.1492348565282139  1.0000
  H   H67       1.0  0.7470224618156731  0.047480072197538054  0.8507651436937325  1.0000
  H   H68       1.0  0.7529775388486586  0.9525199274404573  0.35076514381687457  1.0000
  H   H69       1.0  0.5119962047490434  0.48765636608341023  0.6904047849707557  1.0000
  H   H70       1.0  0.9880037959152884  0.5123436340741325  0.19040478509389785  1.0000
  H   H71       1.0  0.48800379526927085  0.987656365902408  0.8095952151280486  1.0000
  H   H72       1.0  0.011996204103025807  0.012343634255134886  0.3095952152511906  1.0000
  H   H73       1.0  0.8099298459255421  0.45957658055120687  0.6711504976953876  1.0000
  H   H74       1.0  0.6900701547387896  0.540423419606336  0.1711504978185297  1.0000
  H   H75       1.0  0.19007015409277206  0.9595765803702045  0.8288495024034166  1.0000
  H   H76       1.0  0.30992984527952455  0.04042341926779086  0.3288495020583282  1.0000
  H   H77       1.0  0.04667096565390437  0.42282648954421387  0.5992712633550878  1.0000
  H   H78       1.0  0.4533290337183922  0.5771735106133289  0.09927126347822995  1.0000
  H   H79       1.0  0.9533290343644097  0.9228264893632117  0.9007287362754859  1.0000
  H   H80       1.0  0.5466709662999218  0.07717351079433124  0.40072873639862794  1.0000
  H   H81       1.0  0.9667864358076321  0.5064636548006763  0.5789298145374  1.0000
  H   H82       1.0  0.5332135648566997  0.49353634535686647  0.07892981466054208  1.0000
  H   H83       1.0  0.03321356421068217  0.006463654462131188  0.9210701855614043  1.0000
  H   H84       1.0  0.4667864351616145  0.9935363451758642  0.42107018568454635  1.0000
  H   H85       1.0  0.9904618250696255  0.42805072356575374  0.4838257990993558  1.0000
  H   H86       1.0  0.5095381743209854  0.5719492760722417  0.9838257989762138  1.0000
  H   H87       1.0  0.009538174948688687  0.9280507239042988  0.01617420077750212  1.0000
  H   H88       1.0  0.4904618256973288  0.071949276253244  0.51617420065436  1.0000
  H   H89       1.0  0.7965296332773365  0.5184084465083311  0.47237579441270644  1.0000
  H   H90       1.0  0.7034703673869953  0.4815915536492118  0.9723757942895644  1.0000
  H   H91       1.0  0.2034703667409777  0.018408446689333346  0.027624205464151473  1.0000
  H   H92       1.0  0.29652963263131893  0.9815915534682096  0.52762420580924  1.0000
  H   H93       1.0  0.6732702294162293  0.4447269148992368  0.4517713077258233  1.0000
  H   H94       1.0  0.8267297699743816  0.555273085258306  0.9517713080709117  1.0000
  H   H95       1.0  0.3267297706020849  0.9447269147182346  0.04822869215103465  1.0000
  H   H96       1.0  0.17327023004393263  0.055273085439308305  0.5482286920278926  1.0000
  H   H97       1.0  0.791686794815018  0.3272579119659586  0.47471827078921763  1.0000
  H   H98       1.0  0.7083132045755928  0.6727420876720368  0.9747182711343061  1.0000
  H   H99       1.0  0.20831320520329616  0.8272579123045037  0.025281729087640297  1.0000
  H   H100      1.0  0.2916867954427214  0.1727420878530391  0.5252817289644982  1.0000
  H   H101      1.0  0.9558673219468364  0.31681812971710227  0.5310758046767527  1.0000
  H   H102      1.0  0.5441326787174954  0.6831818704404405  0.03107580433166423  1.0000
  H   H103      1.0  0.04413267807147777  0.8168181295361  0.9689241954220515  1.0000
  H   H104      1.0  0.45586732130081886  0.1831818701018954  0.46892419554519366  1.0000
  H   H105      1.0  0.5897911598010293  0.34436648107600015  0.5517740751309652  1.0000
  H   H106      1.0  0.9102088395895815  0.6556335190815427  0.05177407478587675  1.0000
  H   H107      1.0  0.410208840217285  0.8443664814145453  0.9482259249678391  1.0000
  H   H108      1.0  0.0897911604287326  0.15563351874299752  0.44822592509098114  1.0000
  H   H109      1.0  0.7010680813544449  0.2760074979714382  0.5734140367957968  1.0000
  H   H110      1.0  0.7989319193098868  0.7239925021861047  0.07341403691893891  1.0000
  H   H111      1.0  0.29893191866386926  0.7760074977904359  0.9265859633030074  1.0000
  H   H112      1.0  0.20106808070842738  0.22399250236710697  0.4265859634261496  1.0000
  H   H113      1.0  0.8599679119036909  0.33534518856909756  0.6499010365532003  1.0000
  H   H114      1.0  0.64003208748692  0.6646548115884453  0.14990103667634241  1.0000
  H   H115      1.0  0.1400320881146233  0.8353451883880952  0.8500989630773734  1.0000
  H   H116      1.0  0.3599679125313942  0.1646548112499001  0.3500989632005155  1.0000
  H   H117      1.0  0.6363660792561981  0.35088900857666505  0.6607531731177966  1.0000
  H   H118      1.0  0.8636339201344125  0.6491109910613303  0.16075317277270812  1.0000
  H   H119      1.0  0.3636339207621159  0.8508890089152101  0.8392468269810077  1.0000
  H   H120      1.0  0.1363660798839016  0.14911099124233265  0.3392468271041498  1.0000
  H   H121      1.0  0.3722882123718391  0.5741391384286894  0.4384658304355997  1.0000
  H   H122      1.0  0.12771178827417845  0.42586086172885357  0.9384658303124577  1.0000
  H   H123      1.0  0.6277117876464752  0.07413913809014414  0.06153416990948873  1.0000
  H   H124      1.0  0.8722882117441357  0.9258608615478513  0.5615341697863466  1.0000
  C   C1        1.0  0.1247703145283153  0.5925283239355104  0.3927945465248225  1.0000
  C   C2        1.0  0.37522968611770224  0.40747167570248505  0.8927945464016803  1.0000
  C   C3        1.0  0.8752296854899989  0.09252832411651267  0.10720545335203543  1.0000
  C   C4        1.0  0.6247703139006119  0.9074716760410302  0.6072054536971239  1.0000
  C   C5        1.0  0.09076827504322842  0.5207601837433739  0.38556539431501285  1.0000
  C   C6        1.0  0.40923172432906824  0.47923981641416896  0.8855653941918706  1.0000
  C   C7        1.0  0.9092317249750858  0.02076018340482873  0.11443460603007563  1.0000
  C   C8        1.0  0.5907682756892461  0.9792398167527141  0.6144346059069336  1.0000
  C   C9        1.0  0.9480063941523602  0.4992913293077238  0.353528906405657  1.0000
  C   C10       1.0  0.5519936052382507  0.5007086708498191  0.8535289062825149  1.0000
  C   C11       1.0  0.05199360586595401  0.9992913291267216  0.14647109393943145  1.0000
  C   C12       1.0  0.44800639478006354  0.0007086710308213511  0.6464710938162893  1.0000
  C   C13       1.0  0.8343418712947345  0.5483182880469517  0.3287343627644023  1.0000
  C   C14       1.0  0.6656581293695973  0.45168171211059116  0.8287343626412603  1.0000
  C   C15       1.0  0.16565812872357985  0.04831828770840658  0.17126563711245554  1.0000
  C   C16       1.0  0.33434187064871684  0.951681711929589  0.671265637457544  1.0000
  C   C17       1.0  0.8663040900533013  0.6183853878134169  0.33590480776115755  1.0000
  C   C18       1.0  0.6336959093373096  0.38161461182457856  0.8359048076380154  1.0000
  C   C19       1.0  0.1336959099650129  0.11838538799441911  0.1640951921157003  1.0000
  C   C20       1.0  0.36630409068100467  0.8816146121631236  0.6640951919925583  1.0000
  C   C21       1.0  0.746696677124331  0.6725944811249857  0.3099914113300962  1.0000
  C   C22       1.0  0.7533033235400007  0.3274055190325572  0.8099914112069542  1.0000
  C   C23       1.0  0.25330332289398316  0.17259448130598795  0.19000858854676167  1.0000
  C   C24       1.0  0.24669667647831348  0.8274055188515549  0.6900085888918501  1.0000
  C   C25       1.0  0.8421705357386288  0.7386853434802142  0.29200797852400656  1.0000
  C   C26       1.0  0.6578294649257028  0.26131465667732856  0.7920079784008645  1.0000
  C   C27       1.0  0.15782946427968533  0.23868534366121655  0.2079920218210819  1.0000
  C   C28       1.0  0.3421705350926113  0.7613146564963263  0.7079920216979397  1.0000
  C   C29       1.0  0.9264653509928588  0.7656391979966581  0.35161887136574865  1.0000
  C   C30       1.0  0.573534649671473  0.23436080216088462  0.8516188712426066  1.0000
  C   C31       1.0  0.07353464902545546  0.2656391981776605  0.14838112851110927  1.0000
  C   C32       1.0  0.4264653503468412  0.7343608019798823  0.6483811288561977  1.0000
  C   C33       1.0  0.059124245778233414  0.7135688866951648  0.3744074957175732  1.0000
  C   C34       1.0  0.44087575486778413  0.2864311134623781  0.8744074955944312  1.0000
  C   C35       1.0  0.9408757542400807  0.21356888687616704  0.1255925041592847  1.0000
  C   C36       1.0  0.55912424515053  0.7864311132813757  0.6255925040361426  1.0000
  C   C37       1.0  0.7907295871845823  0.7847025170981966  0.399726752078123  1.0000
  C   C38       1.0  0.7092704134797494  0.21529748305934618  0.8997267524232115  1.0000
  C   C39       1.0  0.2092704128337319  0.28470251727919893  0.10027324779873487  1.0000
  C   C40       1.0  0.29072958653856473  0.7152974828783439  0.6002732476755928  1.0000
  C   C41       1.0  0.6024971181315054  0.6902581025157377  0.35555831728939685  1.0000
  C   C42       1.0  0.8975028812591055  0.30974189764180515  0.8555583171662549  1.0000
  C   C43       1.0  0.3975028818868088  0.19025810269674004  0.14444168258746104  1.0000
  C   C44       1.0  0.10249711875920875  0.8097418974608028  0.6444416829325496  1.0000
  C   C45       1.0  0.4761231953495119  0.5277601727503332  0.5136509638787481  1.0000
  C   C46       1.0  0.023876804022784734  0.4722398268876622  0.013650963533659632  1.0000
  C   C47       1.0  0.5238768046688023  0.027760172931335446  0.9863490362200561  1.0000
  C   C48       1.0  0.9761231959955295  0.9722398272262074  0.48634903634319826  1.0000
  C   C49       1.0  0.343261948326444  0.5474794932406796  0.5541544215251395  1.0000
  C   C50       1.0  0.15673805231957355  0.45252050691686335  0.054154421648281645  1.0000
  C   C51       1.0  0.6567380516918702  0.047479493421681805  0.9458455785736647  1.0000
  C   C52       1.0  0.8432619476987407  0.9525205067358611  0.44584557822857623  1.0000
  C   C53       1.0  0.3553857894541479  0.5329174656810307  0.6172492328472631  1.0000
  C   C54       1.0  0.14461420991814875  0.4670825339569646  0.11724923250217453  1.0000
  C   C55       1.0  0.6446142105641663  0.03291746586203307  0.8827507672515412  1.0000
  C   C56       1.0  0.8553857901001655  0.9670825342955097  0.38275076737468333  1.0000
  C   C57       1.0  0.4994052532267286  0.4987197034634457  0.6406189547079698  1.0000
  C   C58       1.0  0.0005947461455680722  0.5012802966940971  0.14061895483111198  1.0000
  C   C59       1.0  0.5005947467915857  0.9987197032824434  0.8593810449226038  1.0000
  C   C60       1.0  0.9994052538727461  0.0012802968750994402  0.3593810450457459  1.0000
  C   C61       1.0  0.6269610208795308  0.4777221227239931  0.6003219544208218  1.0000
  C   C62       1.0  0.87303897851108  0.5222778774335497  0.10032195454396388  1.0000
  C   C63       1.0  0.3730389791387834  0.9777221225429908  0.8996780456779825  1.0000
  C   C64       1.0  0.12696102150723415  0.022277877095004534  0.3996780458011246  1.0000
  C   C65       1.0  0.7820277017194373  0.43961849527735547  0.6239896642827537  1.0000
  C   C66       1.0  0.7179722976711737  0.5603815048801873  0.12398966393766525  1.0000
  C   C67       1.0  0.21797229829887696  0.9396184950963532  0.8760103358160506  1.0000
  C   C68       1.0  0.2820277023471406  0.06038150454164222  0.37601033593919264  1.0000
  C   C69       1.0  0.9352012167843685  0.45090575916580217  0.5811239531383973  1.0000
  C   C70       1.0  0.5647987838799632  0.5490942404721932  0.08112395279330886  1.0000
  C   C71       1.0  0.06479878323394561  0.9509057595043474  0.9188760469604069  1.0000
  C   C72       1.0  0.43520121613835105  0.04909424065319551  0.4188760470835491  1.0000
  C   C73       1.0  0.8830508922979812  0.4240617910126434  0.5167119278414521  1.0000
  C   C74       1.0  0.6169491083663505  0.5759382091448995  0.016711927964594232  1.0000
  C   C75       1.0  0.11694910772033303  0.9240617908316411  0.9832880722573522  1.0000
  C   C76       1.0  0.3830508916519636  0.07593820932590173  0.48328807238049415  1.0000
  C   C77       1.0  0.7418998289028121  0.4698625715601998  0.490480047085606  1.0000
  C   C78       1.0  0.7581001717615196  0.5301374280777956  0.9904800474306944  1.0000
  C   C79       1.0  0.258100171115502  0.969862571898745  0.009519952791251892  1.0000
  C   C80       1.0  0.24189982825679468  0.030137428258797887  0.5095199526681098  1.0000
  C   C81       1.0  0.8408941998823125  0.346645773654092  0.5194855457465933  1.0000
  C   C82       1.0  0.6591057995082983  0.6533542265034508  0.019485545869735388  1.0000
  C   C83       1.0  0.15910580013600167  0.8466457734730897  0.980514454352211  1.0000
  C   C84       1.0  0.34089420051001584  0.15335422668445312  0.48051445447535307  1.0000
  C   C85       1.0  0.7468604024834755  0.36160221409968557  0.6308545284518836  1.0000
  C   C86       1.0  0.7531395969071354  0.6383977860578572  0.13085452857502575  1.0000
  C   C87       1.0  0.2531395975348387  0.8616022139186832  0.8691454716469207  1.0000
  C   C88       1.0  0.24686040311117882  0.13839778623885957  0.3691454717700627  1.0000
  N   N1        1.0  0.00906448069070799  0.6396394005473184  0.36769006844840246  1.0000
  N   N2        1.0  0.4909355199553096  0.36036059961022443  0.8676900683252603  1.0000
  N   N3        1.0  0.9909355193276062  0.13963940072832073  0.13230993142845546  1.0000
  N   N4        1.0  0.5090644800630046  0.8603605994292222  0.6323099313053134  1.0000
  N   N5        1.0  0.6673336047780277  0.7268732187327647  0.4125219985513537  1.0000
  N   N6        1.0  0.832666394612583  0.2731267809052307  0.9125219984282115  1.0000
  N   N7        1.0  0.3326663952402864  0.22687321891376705  0.08747800132550423  1.0000
  N   N8        1.0  0.16733360540573114  0.7731267812437758  0.5874780016705927  1.0000
  N   N9        1.0  0.6120435722660915  0.4908925585521277  0.5373916914836598  1.0000
  N   N10       1.0  0.8879564271245194  0.5091074410858677  0.03739169160680193  1.0000
  N   N11       1.0  0.3879564264785018  0.9908925588906728  0.9626083086151445  1.0000
  N   N12       1.0  0.11204357289379484  0.00910744126686997  0.4626083087382865  1.0000
  N   N13       1.0  0.7104329232671855  0.3298025675591179  0.5683784603738781  1.0000
  N   N14       1.0  0.7895670773971463  0.6701974320788775  0.06837846049702022  1.0000
  N   N15       1.0  0.28956707675112875  0.829802567897663  0.9316215392566957  1.0000
  N   N16       1.0  0.21043292262116792  0.1701974322598798  0.4316215393798377  1.0000
  O   O1        1.0  0.25582872169454884  0.6183093146370942  0.42022238640251086  1.0000
  O   O2        1.0  0.2441712776777478  0.38169068500090125  0.9202223867475993  1.0000
  O   O3        1.0  0.7441712783237653  0.11830931481809646  0.07977761347434709  1.0000
  O   O4        1.0  0.7558287223405664  0.8816906853394463  0.579777613351205  1.0000
  O   O5        1.0  0.4822550864976851  0.5412791682849072  0.4540086223329376  1.0000
  O   O6        1.0  0.01774491287461152  0.4587208318726356  0.954008622678026  1.0000
  O   O7        1.0  0.5177449135206291  0.04127916794636206  0.04599137754392029  1.0000
  O   O8        1.0  0.9822550871437027  0.9587208316916334  0.5459913774207782  1.0000
  I   I1        1.0  0.4585155208077777  0.20230602093584366  0.6415455581259709  1.0000
  I   I2        1.0  0.0414844798382399  0.7976939792216992  0.14154555824911297  1.0000
  I   I3        1.0  0.5414844792105364  0.7023060207548414  0.8584544415046029  1.0000
  I   I4        1.0  0.9585155201800742  0.2976939794027015  0.3584544416277449  1.0000
  I   I5        1.0  0.26716155411696346  0.32171298468486054  0.6912095056386262  1.0000
  I   I6        1.0  0.2328384452553332  0.6782870154726822  0.19120950576176823  1.0000
  I   I7        1.0  0.7328384459013508  0.8217129845038582  0.8087904944601781  1.0000
  I   I8        1.0  0.767161554762981  0.17828701565368463  0.3087904941150897  1.0000
  I   I9        1.0  0.1247180996134417  0.4457755123165666  0.7501482465199611  1.0000
  I   I10       1.0  0.37528190103257586  0.5542244873214288  0.2501482466431032  1.0000
  I   I11       1.0  0.8752819004048725  0.9457755126551117  0.7498517531106127  1.0000
  I   I12       1.0  0.6247180989857384  0.05422448750243113  0.2498517532337547  1.0000
  I   I13       1.0  0.590758669286163  0.3684869908624778  0.21439039071482857  1.0000
  I   I14       1.0  0.9092413313781685  0.6315130087755176  0.7143903905916865  1.0000
  I   I15       1.0  0.409241330732151  0.8684869912010229  0.2856096096302599  1.0000
  I   I16       1.0  0.09075866864014562  0.1315130089565199  0.7856096095071178  1.0000
  I   I17       1.0  0.46789468953328345  0.36489934896441917  0.3408335466165848  1.0000
  I   I18       1.0  0.032105311112734125  0.6351006511931236  0.8408335464934427  1.0000
  I   I19       1.0  0.5321053104850307  0.8648993487834169  0.1591664537285036  1.0000
  I   I20       1.0  0.9678946889055802  0.13510065137412597  0.6591664536053615  1.0000
  I   I21       1.0  0.3354614483992516  0.3501689776409093  0.4778755464959244  1.0000
  I   I22       1.0  0.16453855097304504  0.6498310225166335  0.9778755463727823  1.0000
  I   I23       1.0  0.6645385516190626  0.850168977459907  0.02212445384916409  1.0000
  I   I24       1.0  0.8354614490452692  0.14983102269763576  0.522124453726022  1.0000
  I   I25       1.0  0.8558942722235662  0.6564356857927831  0.542300778235187  1.0000
  I   I26       1.0  0.6441057284407655  0.34356431436475976  0.04230077789009849  1.0000
  I   I27       1.0  0.14410572779474806  0.15643568545423792  0.9576992218636173  1.0000
  I   I28       1.0  0.3558942715775486  0.8435643141837573  0.45769922198675944  1.0000
