data_image0
_chemical_formula_structural       H24C14N8S4
_chemical_formula_sum              "H24 C14 N8 S4"
_cell_length_a       7.225564602411495
_cell_length_b       9.39322531149047
_cell_length_c       8.051463461637725
_cell_angle_alpha    87.73846087764397
_cell_angle_beta     112.1155018318463
_cell_angle_gamma    91.97378787491355

_space_group_name_H-M_alt    "P 1"
_space_group_IT_number       1

loop_
  _space_group_symop_operation_xyz
  'x, y, z'

loop_
  _atom_site_type_symbol
  _atom_site_label
  _atom_site_symmetry_multiplicity
  _atom_site_fract_x
  _atom_site_fract_y
  _atom_site_fract_z
  _atom_site_occupancy
  H   H1        1.0  0.2710449201717621  0.2864025853961567  0.582733144818804  1.0000
  H   H2        1.0  0.7289550792887183  0.7135974144092397  0.4172668549430159  1.0000
  H   H3        1.0  0.2250769432750118  0.1293774979817836  0.08656494205828266  1.0000
  H   H4        1.0  0.7749230562229027  0.870622502889257  0.9134350576732966  1.0000
  H   H5        1.0  0.23658212994138036  0.38909588481309787  0.12980415198613507  1.0000
  H   H6        1.0  0.7634178710127629  0.6109041149880905  0.870195848293801  1.0000
  H   H7        1.0  0.38377736145187913  0.4369889049525882  0.3536003985043564  1.0000
  H   H8        1.0  0.6162226380086011  0.5630110948528083  0.6463996012574637  1.0000
  H   H9        1.0  0.1192696938767562  0.4344541140898838  0.27945641925116527  1.0000
  H   H10       1.0  0.8807303055837242  0.5655458857155127  0.7205435805106547  1.0000
  H   H11       1.0  0.19562030706816036  0.8738509238817755  0.05281910432581077  1.0000
  H   H12       1.0  0.8043796924297542  0.12614907698926528  0.9471808954057686  1.0000
  H   H13       1.0  0.07117194254727141  0.7859326920503432  0.1842655493624753  1.0000
  H   H14       1.0  0.928828056913209  0.21406730775505334  0.8157344503993448  1.0000
  H   H15       1.0  0.33366880424032275  0.7744746417047389  0.2509972190005963  1.0000
  H   H16       1.0  0.6663311967138207  0.22552535809644966  0.7490027812793401  1.0000
  H   H17       1.0  0.3819809210026035  0.8050854753849819  0.85062230296775  1.0000
  H   H18       1.0  0.618019078457877  0.19491452442041465  0.14937769679407  1.0000
  H   H19       1.0  0.4770359133069922  0.6502925798512721  0.9871856296463805  1.0000
  H   H20       1.0  0.5229640861534881  0.3497074199541244  0.012814370115439516  1.0000
  H   H21       1.0  0.06679760127118514  0.6189145601532949  0.4758435670965259  1.0000
  H   H22       1.0  0.9332023982267293  0.3810854407177458  0.5241564326350532  1.0000
  H   H23       1.0  0.20120746589614935  0.7813823178138121  0.5469728933803756  1.0000
  H   H24       1.0  0.7987925335643311  0.2186176819915845  0.4530271063814445  1.0000
  C   C1        1.0  0.2697730031733554  0.06588291110872052  0.5761601189637467  1.0000
  C   C2        1.0  0.730226997818222  0.9341170897581121  0.4238398812859486  1.0000
  C   C3        1.0  0.24995557091751822  0.22831218459717964  0.32994098958126067  1.0000
  C   C4        1.0  0.7500444285429622  0.7716878152082169  0.6700590101805595  1.0000
  C   C5        1.0  0.23536881842850257  0.1129673408120006  0.2241375813113492  1.0000
  C   C6        1.0  0.7646311825256407  0.8870326589891878  0.7758624189685869  1.0000
  C   C7        1.0  0.2328500167043572  0.9751234671663528  0.29874011736735984  1.0000
  C   C8        1.0  0.7671499827935574  0.024876533704688064  0.7012598823642195  1.0000
  C   C9        1.0  0.24705032657175827  0.3801484773577512  0.2691093497084071  1.0000
  C   C10       1.0  0.752949674382385  0.6198515224434372  0.730890650571529  1.0000
  C   C11       1.0  0.20685415713305733  0.845643977277229  0.18929450318217064  1.0000
  C   C12       1.0  0.793145843821086  0.15435602252395947  0.8107054970977655  1.0000
  C   C13       1.0  0.26827911587669606  0.6133070566264215  0.7359760932742789  1.0000
  C   C14       1.0  0.7317208850774471  0.3866929431747669  0.26402390700565737  1.0000
  N   N1        1.0  0.2667616156566226  0.20116141708671084  0.5016936242879643  1.0000
  N   N2        1.0  0.7332383852975206  0.7988385827144776  0.4983063759919719  1.0000
  N   N3        1.0  0.2511871644237129  0.9537310570471579  0.4696406696692003  1.0000
  N   N4        1.0  0.7488128365304302  0.046268942754030526  0.5303593306107358  1.0000
  N   N5        1.0  0.38393744477710096  0.6956918276878655  0.86841149946687  1.0000
  N   N6        1.0  0.6160625546833794  0.30430817211753086  0.1315885002949501  1.0000
  N   N7        1.0  0.17285409171298183  0.6748737991707286  0.575059439644957  1.0000
  N   N8        1.0  0.8271459077849327  0.32512620170031215  0.42494056008662234  1.0000
  S   S1        1.0  0.2986755000790319  0.04586819031678189  0.7934483278790663  1.0000
  S   S2        1.0  0.7013245008751114  0.9541318094844068  0.2065516724008699  1.0000
  S   S3        1.0  0.24224963933608265  0.43322597687742853  0.7746812137235136  1.0000
  S   S4        1.0  0.7577503601243978  0.566774022927968  0.22531878603830646  1.0000
