data_image0
_chemical_formula_structural       H15C14N3O2Cl2
_chemical_formula_sum              "H15 C14 N3 O2 Cl2"
_cell_length_a       4.841086131460887
_cell_length_b       5.96483234565712
_cell_length_c       13.415401760825294
_cell_angle_alpha    84.9430090147392
_cell_angle_beta     87.48638921481718
_cell_angle_gamma    83.2295871301673

_space_group_name_H-M_alt    "P 1"
_space_group_IT_number       1

loop_
  _space_group_symop_operation_xyz
  'x, y, z'

loop_
  _atom_site_type_symbol
  _atom_site_label
  _atom_site_symmetry_multiplicity
  _atom_site_fract_x
  _atom_site_fract_y
  _atom_site_fract_z
  _atom_site_occupancy
  H   H1        1.0  0.1952365457973596  0.9174672823744024  0.05878954231267693  1.0000
  H   H2        1.0  0.2863098517607924  0.7547295721027044  0.8532475933910793  1.0000
  H   H3        1.0  0.8533063665525761  0.061126221476115156  0.9292005511008163  1.0000
  H   H4        1.0  0.5962472744959669  0.35719169092265124  0.8425657732177135  1.0000
  H   H5        1.0  0.32813127353544885  0.4048029057966174  0.9346708692513148  1.0000
  H   H6        1.0  0.6916188986528541  0.6933129248061497  0.06456812317283875  1.0000
  H   H7        1.0  0.04411010490465264  0.5549317148741626  0.19074240037760173  1.0000
  H   H8        1.0  0.24664452215899269  0.2085686461386828  0.7401720135301665  1.0000
  H   H9        1.0  0.914457133941869  0.1958894067830428  0.7355802400356329  1.0000
  H   H10       1.0  0.66538147148298  0.46813831339067025  0.32386053779523943  1.0000
  H   H11       1.0  0.3446692379960019  0.22512311820218142  0.4179149818144285  1.0000
  H   H12       1.0  0.8879998225236929  0.32163590477195314  0.5685360787488947  1.0000
  H   H13       1.0  0.1568173983803146  0.0949098795782302  0.5784183730993111  1.0000
  H   H14       1.0  0.29413281193980984  0.6462963016683154  0.6630251294270875  1.0000
  H   H15       1.0  0.6277824285127542  0.8877216306892127  0.5706264996856272  1.0000
  C   C1        1.0  0.08513195138821027  0.08727399815834536  0.05938131699422087  1.0000
  C   C2        1.0  0.14074390867261163  0.22791664954766624  0.132045859140846  1.0000
  C   C3        1.0  0.8905480225340979  0.16790991476458386  0.9877288098547418  1.0000
  C   C4        1.0  0.7453368083680568  0.38495343371103047  0.9879795567885261  1.0000
  C   C5        1.0  0.5333090870214017  0.4515520582042755  0.90821314898532  1.0000
  C   C6        1.0  0.8010665240207123  0.5228413112380731  0.06211518847941783  1.0000
  C   C7        1.0  0.00013388780398497052  0.4462656003046881  0.13362990945946804  1.0000
  C   C8        1.0  0.6633058947423514  0.6928324302049859  0.44188144911432137  1.0000
  C   C9        1.0  0.5850635884291417  0.506975353341366  0.39822280590395204  1.0000
  C   C10       1.0  0.40445418629396135  0.37150081094900284  0.45147261837132874  1.0000
  C   C11       1.0  0.2971653349813539  0.41918847082990496  0.547006697445616  1.0000
  C   C12       1.0  0.0952808697159637  0.26960816296724777  0.5993254650660493  1.0000
  C   C13       1.0  0.3785987444684447  0.6067178475574879  0.5890794014681702  1.0000
  C   C14       1.0  0.5625389971748084  0.7432938277581299  0.5373178948177236  1.0000
  N   N1        1.0  0.4814497067435022  0.6921816987177167  0.8768687084600839  1.0000
  N   N2        1.0  0.6819411466799767  0.7957934469266492  0.8243726406101591  1.0000
  N   N3        1.0  0.07024373459259958  0.28718902835516275  0.7076019022316161  1.0000
  O   O1        1.0  0.9256759980449208  0.7043689341661757  0.830002695921073  1.0000
  O   O2        1.0  0.6079219536896294  0.9816603548868124  0.7769293088367538  1.0000
  Cl  Cl1       1.0  0.389182458767153  0.12625738159416658  0.21852349857484782  1.0000
  Cl  Cl2       1.0  0.8933320552357286  0.8606537714953835  0.37668241628098886  1.0000
