data_image0
_chemical_formula_structural       H104C116N8O36
_chemical_formula_sum              "H104 C116 N8 O36"
_cell_length_a       4.810397847487471
_cell_length_b       15.660606273683479
_cell_length_c       32.18996764870426
_cell_angle_alpha    90.0
_cell_angle_beta     89.5248104558044
_cell_angle_gamma    90.0

_space_group_name_H-M_alt    "P 1"
_space_group_IT_number       1

loop_
  _space_group_symop_operation_xyz
  'x, y, z'

loop_
  _atom_site_type_symbol
  _atom_site_label
  _atom_site_symmetry_multiplicity
  _atom_site_fract_x
  _atom_site_fract_y
  _atom_site_fract_z
  _atom_site_occupancy
  H   H1        1.0  0.3665924525500824  0.2056180120824026  0.06228721904043788  1.0000
  H   H2        1.0  0.6334075489750196  0.7056180122840717  0.43771278112792816  1.0000
  H   H3        1.0  0.6334075483361143  0.7943819876823907  0.9377127809165836  1.0000
  H   H4        1.0  0.36659245191117706  0.2943819874807216  0.5622872188290933  1.0000
  H   H5        1.0  0.8791721963661122  0.9951844231081775  0.11238360320696575  1.0000
  H   H6        1.0  0.12082780308016425  0.4951844229065085  0.3876163969613182  1.0000
  H   H7        1.0  0.12082780244125897  0.004815577295160612  0.8876163967499736  1.0000
  H   H8        1.0  0.8791721977882415  0.5048155774968297  0.6123836033063698  1.0000
  H   H9        1.0  0.4183738686627596  0.9701968355805103  0.19722897302371856  1.0000
  H   H10       1.0  0.581626130783517  0.47019683537884127  0.30277102714456544  1.0000
  H   H11       1.0  0.5816261322234372  0.02980316482282781  0.8027710269333029  1.0000
  H   H12       1.0  0.4183738680238543  0.529803164385952  0.697228972812374  1.0000
  H   H13       1.0  0.7114126466457573  0.12121571456591536  0.2834780466296559  1.0000
  H   H14       1.0  0.2885873528005193  0.6212157141290395  0.216521953538628  1.0000
  H   H15       1.0  0.28858735422264864  0.8787842858374229  0.716521953638032  1.0000
  H   H16       1.0  0.711412646006852  0.3787842856357537  0.7834780464183114  1.0000
  H   H17       1.0  0.030063267854865534  0.2039464714317709  0.23931195411431805  1.0000
  H   H18       1.0  0.9699367315914109  0.703946470994895  0.2606880460539659  1.0000
  H   H19       1.0  0.9699367309525057  0.7960535289715672  0.7606880458426214  1.0000
  H   H20       1.0  0.03006326927699492  0.2960535287698982  0.7393119542137221  1.0000
  H   H21       1.0  0.002151669593301554  0.8487525034286963  0.26683522091802014  1.0000
  H   H22       1.0  0.9978483298707659  0.34875250386557205  0.23316477893959733  1.0000
  H   H23       1.0  0.9978483312928953  0.15124749633609702  0.7331647790390015  1.0000
  H   H24       1.0  0.0021516689366054345  0.651247496537766  0.766835221017342  1.0000
  H   H25       1.0  0.4026651979807009  0.34161581847505734  0.2080613783700728  1.0000
  H   H26       1.0  0.597334803562192  0.8416158186767264  0.2919386214876268  1.0000
  H   H27       1.0  0.5973348029054958  0.658384181289736  0.7919386215869487  1.0000
  H   H28       1.0  0.40266519732400474  0.15838418172661173  0.7080613784693948  1.0000
  H   H29       1.0  0.5758278077910982  0.985495114958276  0.30773680137345966  1.0000
  H   H30       1.0  0.4241721937517947  0.48549511539515183  0.19226319848423998  1.0000
  H   H31       1.0  0.42417219309509857  0.014504884806517236  0.6922631985835619  1.0000
  H   H32       1.0  0.575827807134402  0.5145048850081864  0.8077368014727816  1.0000
  H   H33       1.0  0.9893331801491428  0.3491415271187929  0.12846462738033854  1.0000
  H   H34       1.0  0.010666819297133761  0.8491415273204621  0.37153537278794535  1.0000
  H   H35       1.0  0.010666818658228472  0.6508584726460003  0.8715353725766009  1.0000
  H   H36       1.0  0.9893331815712721  0.15085847244433123  0.6284646274797426  1.0000
  H   H37       1.0  0.4247010020720246  0.0674115108668581  0.04212959906000449  1.0000
  H   H38       1.0  0.5752989973920428  0.5674115104299823  0.457870400797613  1.0000
  H   H39       1.0  0.5752989988141721  0.9325884895364801  0.957870400897017  1.0000
  H   H40       1.0  0.42470100141532846  0.432588489334811  0.5421295991593265  1.0000
  H   H41       1.0  0.25215408774938214  0.782336509576157  0.12276181832124712  1.0000
  H   H42       1.0  0.7478459116968944  0.2823365093744879  0.37723818184703684  1.0000
  H   H43       1.0  0.7478459131190237  0.21766349082718117  0.8772381819464408  1.0000
  H   H44       1.0  0.2521540871104769  0.7176634903903054  0.6227618181099025  1.0000
  H   H45       1.0  0.9719259123240456  0.557098992052492  0.05798756289391202  1.0000
  H   H46       1.0  0.028074087122230817  0.057098992489367846  0.44201243727437195  1.0000
  H   H47       1.0  0.028074088544360203  0.44290100771230123  0.9420124373737759  1.0000
  H   H48       1.0  0.9719259116851403  0.9429010079139702  0.5579875626825674  1.0000
  H   H49       1.0  0.2940804168066984  0.4699447046547176  0.09910830125962708  1.0000
  H   H50       1.0  0.705919582657369  0.9699447042178417  0.4008916985979904  1.0000
  H   H51       1.0  0.7059195840794984  0.5300552957486206  0.9008916986973945  1.0000
  H   H52       1.0  0.2940804161500023  0.030055295546951515  0.599108301358949  1.0000
  H   H53       1.0  0.6622369515775542  0.8209297913072507  0.14899468369712116  1.0000
  H   H54       1.0  0.3377630478865131  0.3209297911055816  0.3510053161604963  1.0000
  H   H55       1.0  0.33776304722981704  0.17907020909608745  0.8510053162598182  1.0000
  H   H56       1.0  0.6622369529996837  0.6790702086592116  0.6489946837965253  1.0000
  H   H57       1.0  0.7693766622353249  0.7970005708510967  0.20105296482028934  1.0000
  H   H58       1.0  0.23062333722874243  0.29700057128797247  0.29894703503732817  1.0000
  H   H59       1.0  0.23062333657204628  0.20299942891369657  0.7989470351366501  1.0000
  H   H60       1.0  0.7693766615786288  0.7029994291153656  0.7010529649196113  1.0000
  H   H61       1.0  0.4067858774548343  0.8055141435487289  0.18979584923974158  1.0000
  H   H62       1.0  0.5932141240880586  0.3055141439856048  0.310204150617958  1.0000
  H   H63       1.0  0.5932141234313626  0.19448585621606432  0.8102041507172799  1.0000
  H   H64       1.0  0.40678587679813805  0.6944858564177333  0.6897958493390635  1.0000
  H   H65       1.0  0.715368851635695  0.6289095031110457  0.0273028066240276  1.0000
  H   H66       1.0  0.2846311499071979  0.12890950290937647  0.472697193233672  1.0000
  H   H67       1.0  0.28463114925050176  0.3710904972922926  0.9726971933329939  1.0000
  H   H68       1.0  0.7153688509789988  0.8710904968554167  0.5273028067233495  1.0000
  H   H69       1.0  0.025338789528608484  0.8528300409699667  0.0899855329707186  1.0000
  H   H70       1.0  0.974661209917668  0.3528300407682976  0.4100144671975654  1.0000
  H   H71       1.0  0.9746612092787628  0.14716995943337144  0.9100144669862208  1.0000
  H   H72       1.0  0.025338788871912352  0.6471699589964957  0.5899855330700405  1.0000
  H   H73       1.0  0.6975779870722751  0.9409488216789218  0.05142285364689097  1.0000
  H   H74       1.0  0.3024220123917923  0.4409488214772527  0.4485771462107265  1.0000
  H   H75       1.0  0.30242201173509614  0.05905117808587152  0.9485771463100484  1.0000
  H   H76       1.0  0.6975779884944044  0.5590511782875406  0.5514228537462951  1.0000
  H   H77       1.0  0.5719067760100891  0.6123837936029214  0.9590295988229554  1.0000
  H   H78       1.0  0.42809322421941143  0.1123837940397972  0.5409704012333882  1.0000
  H   H79       1.0  0.42809322487610746  0.38761620616187187  0.04097040113406623  1.0000
  H   H80       1.0  0.5719067766667854  0.887616206363541  0.4590295987236333  1.0000
  H   H81       1.0  0.20892514353525957  0.6196211992320038  0.9468807629295977  1.0000
  H   H82       1.0  0.791074856694241  0.11962119903033472  0.5531192371267458  1.0000
  H   H83       1.0  0.7910748573509372  0.3803788011713344  0.05311923702742388  1.0000
  H   H84       1.0  0.20892514419195568  0.8803788013730035  0.4468807628302757  1.0000
  H   H85       1.0  0.31344029510926497  0.5900224754087163  0.9985137174970503  1.0000
  H   H86       1.0  0.6865597051202357  0.09002247520704726  0.5014862825592931  1.0000
  H   H87       1.0  0.6865597036803154  0.40997752435607693  0.0014862827705555864  1.0000
  H   H88       1.0  0.31344029576596105  0.909977524557746  0.4985137173977284  1.0000
  H   H89       1.0  0.7011755703496981  0.471350528261751  0.14742974859327238  1.0000
  H   H90       1.0  0.29882442909657836  0.9713505284634201  0.35257025157501154  1.0000
  H   H91       1.0  0.29882443053649854  0.5286494715030423  0.8525702513637491  1.0000
  H   H92       1.0  0.7011755697107929  0.028649471939918087  0.6474297483819279  1.0000
  H   H93       1.0  0.7834395872150419  0.5619630898191287  0.17295881551262696  1.0000
  H   H94       1.0  0.21656041223123457  0.06196308961745963  0.32704118465565696  1.0000
  H   H95       1.0  0.21656041367115478  0.43803691058420946  0.8270411844443946  1.0000
  H   H96       1.0  0.7834395865761368  0.9380369101473336  0.6729588153012825  1.0000
  H   H97       1.0  0.19461481107081488  0.8538225134022835  0.9786290961784206  1.0000
  H   H98       1.0  0.8053851891586856  0.3538225138391594  0.5213709038779227  1.0000
  H   H99       1.0  0.8053851877365563  0.14617748636250966  0.021370903778518743  1.0000
  H   H100      1.0  0.19461481172751105  0.6461774865641788  0.4786290960790987  1.0000
  H   H101      1.0  0.2545502565077786  0.9362547664989809  0.010087198731252741  1.0000
  H   H102      1.0  0.745449742938498  0.4362547662973117  0.48991280143703125  1.0000
  H   H103      1.0  0.7454497443606273  0.0637452332658125  0.9899128015364353  1.0000
  H   H104      1.0  0.2545502558688733  0.5637452334674815  0.5100871985199082  1.0000
  C   C1        1.0  0.43632668726108403  0.1413491413624144  0.18782557307523848  1.0000
  C   C2        1.0  0.5636733122029833  0.6413491409255386  0.312174426782379  1.0000
  C   C3        1.0  0.5636733136251127  0.8586508590409238  0.812174426881783  1.0000
  C   C4        1.0  0.4363266866043879  0.3586508588392547  0.6878255731745604  1.0000
  C   C5        1.0  0.48257747600141265  0.22863672883577457  0.18745785686638372  1.0000
  C   C6        1.0  0.5174225234448638  0.7286367290374436  0.3125421433019002  1.0000
  C   C7        1.0  0.5174225248669934  0.7713632709290187  0.8125421434013043  1.0000
  C   C8        1.0  0.48257747536250745  0.27136327072734956  0.6874578566550391  1.0000
  C   C9        1.0  0.6888481509403296  0.2660390445420508  0.16058216631953748  1.0000
  C   C10       1.0  0.3111518485237378  0.766039044105175  0.33941783353808  1.0000
  C   C11       1.0  0.31115184786704164  0.7339609558612874  0.839417833637402  1.0000
  C   C12       1.0  0.6888481502836336  0.23396095565961825  0.6605821664188594  1.0000
  C   C13       1.0  0.054381777682298314  0.23878015605844471  0.10696107546109158  1.0000
  C   C14       1.0  0.9456182238605946  0.7387801562601137  0.393038924396608  1.0000
  C   C15       1.0  0.9456182232038985  0.7612198437063485  0.8930389244959298  1.0000
  C   C16       1.0  0.054381777025602186  0.26121984414322436  0.6069610755604135  1.0000
  C   C17       1.0  0.1987933514928566  0.18179301683767887  0.08185797959314611  1.0000
  C   C18       1.0  0.8012066479712108  0.6817930170393479  0.4181420202644714  1.0000
  C   C19       1.0  0.8012066473145145  0.8182069829271145  0.9181420203637933  1.0000
  C   C20       1.0  0.19879335291498598  0.3182069833639902  0.5818579796925502  1.0000
  C   C21       1.0  0.13353579940190768  0.0939883970184122  0.08332840817855583  1.0000
  C   C22       1.0  0.8664642000621595  0.5939883972200813  0.41667159167906165  1.0000
  C   C23       1.0  0.866464201484289  0.906011602746381  0.9166715917784657  1.0000
  C   C24       1.0  0.1335357987452116  0.40601160254471197  0.5833284082778777  1.0000
  C   C25       1.0  0.9263455605404864  0.06290088983689811  0.11021226160285932  1.0000
  C   C26       1.0  0.07365444100240633  0.5629008894000223  0.38978773825484025  1.0000
  C   C27       1.0  0.0736544403457102  0.93709911056644  0.8897877383541621  1.0000
  C   C28       1.0  0.9263455598837904  0.43709911036477095  0.6102122617021812  1.0000
  C   C29       1.0  0.7843587622139544  0.1211716594388058  0.1351611718847314  1.0000
  C   C30       1.0  0.2156412393289384  0.62117165900193  0.3648388279729682  1.0000
  C   C31       1.0  0.21564123867224233  0.8788283409645323  0.8648388280722902  1.0000
  C   C32       1.0  0.7843587615572584  0.3788283407628633  0.6351611719840534  1.0000
  C   C33       1.0  0.8399340180511173  0.20934239343652764  0.13405260998919588  1.0000
  C   C34       1.0  0.16006598349177553  0.7093423936381967  0.3659473898685037  1.0000
  C   C35       1.0  0.16006598283507942  0.7906576063282656  0.8659473899678256  1.0000
  C   C36       1.0  0.8399340173944213  0.29065760676514146  0.6340526100885178  1.0000
  C   C37       1.0  0.24598561856644505  0.09382148777145717  0.21435077550473652  1.0000
  C   C38       1.0  0.7540143829586569  0.5938214879731263  0.2856492246636295  1.0000
  C   C39       1.0  0.7540143823197517  0.906178512631881  0.7856492244522849  1.0000
  C   C40       1.0  0.2459856179275398  0.4061785124302119  0.714350775293392  1.0000
  C   C41       1.0  0.26298996744092734  0.003736694415102996  0.21576930288386742  1.0000
  C   C42       1.0  0.7370100341019655  0.5037366946167721  0.28423069697383213  1.0000
  C   C43       1.0  0.7370100334452694  0.9962633053496902  0.7842306970731541  1.0000
  C   C44       1.0  0.2629899667842312  0.4962633051480212  0.7157693029831893  1.0000
  C   C45       1.0  0.08896263488013353  0.957048122408018  0.2416988864560713  1.0000
  C   C46       1.0  0.9110373666449685  0.4570481222063488  0.2583011137122948  1.0000
  C   C47       1.0  0.9110373660060633  0.04295187799532026  0.7583011135009502  1.0000
  C   C48       1.0  0.08896263422343742  0.5429518781969893  0.7416988865553933  1.0000
  C   C49       1.0  0.8864018224451125  0.9993028396543097  0.26636623789732233  1.0000
  C   C50       1.0  0.11359817909778033  0.4993028400911856  0.23363376196037725  1.0000
  C   C51       1.0  0.1135981784410842  0.0006971601104835148  0.7336337620596992  1.0000
  C   C52       1.0  0.8864018217884164  0.5006971603121526  0.7663662379966443  1.0000
  C   C53       1.0  0.8687881129825439  0.088318532234875  0.2650004076016314  1.0000
  C   C54       1.0  0.13121188856034902  0.5883185324365441  0.2349995922560682  1.0000
  C   C55       1.0  0.1312118879036529  0.9116814675299183  0.7349995923553901  1.0000
  C   C56       1.0  0.8687881123258476  0.41168146796679406  0.7650004077009533  1.0000
  C   C57       1.0  0.04677835596718543  0.1351040625774156  0.23958994222461322  1.0000
  C   C58       1.0  0.953221643496882  0.6351040621405397  0.26041005763300423  1.0000
  C   C59       1.0  0.9532216428401857  0.8648959378259226  0.7604100577323262  1.0000
  C   C60       1.0  0.0467783553104893  0.3648959376242535  0.7395899423239352  1.0000
  C   C61       1.0  0.4581555631187142  0.5757880584197266  0.13336261661474091  1.0000
  C   C62       1.0  0.5418444384241787  0.0757880582180575  0.36663738324295864  1.0000
  C   C63       1.0  0.5418444377674826  0.4242119413450667  0.8666373833422806  1.0000
  C   C64       1.0  0.458155562462018  0.9242119415467358  0.6333626167140629  1.0000
  C   C65       1.0  0.44131207230266634  0.6646860624733427  0.13990257643910162  1.0000
  C   C66       1.0  0.5586879292224357  0.1646860622716736  0.36009742372926445  1.0000
  C   C67       1.0  0.5586879285835304  0.3353139379299955  0.86009742351792  1.0000
  C   C68       1.0  0.441312071663761  0.8353139374931197  0.639902576227757  1.0000
  C   C69       1.0  0.2586857713473895  0.7140912806672368  0.1169766750339246  1.0000
  C   C70       1.0  0.7413142281166779  0.21409128046556775  0.3830233248236929  1.0000
  C   C71       1.0  0.7413142295388073  0.28590871909755644  0.8830233249230969  1.0000
  C   C72       1.0  0.2586857706906933  0.7859087192992256  0.6169766751332465  1.0000
  C   C73       1.0  0.08637898257107889  0.6777456277561812  0.08656732430840541  1.0000
  C   C74       1.0  0.9136210168751976  0.17774562755451215  0.41343267585987853  1.0000
  C   C75       1.0  0.9136210183151179  0.32225437264715695  0.9134326756486162  1.0000
  C   C76       1.0  0.08637898193217361  0.8222543722102811  0.5865673240970608  1.0000
  C   C77       1.0  0.10379520365137772  0.5890130706817382  0.08055619420151035  1.0000
  C   C78       1.0  0.8962047958126896  0.08901307111861399  0.4194438056561071  1.0000
  C   C79       1.0  0.8962047972348192  0.4109869290830551  0.9194438057555111  1.0000
  C   C80       1.0  0.10379520299468159  0.9109869292847241  0.5805561943008323  1.0000
  C   C81       1.0  0.2862976992984762  0.5389221625590931  0.10366992630205987  1.0000
  C   C82       1.0  0.7137023022266258  0.03892216235742391  0.39633007386630614  1.0000
  C   C83       1.0  0.7137023015699298  0.46107783784424516  0.8963300739656281  1.0000
  C   C84       1.0  0.2862976986595709  0.9610778374073693  0.6036699260907153  1.0000
  C   C85       1.0  0.6107644516131941  0.7854788132098736  0.1775850029501857  1.0000
  C   C86       1.0  0.3892355478508733  0.2854788136467494  0.3224149969074318  1.0000
  C   C87       1.0  0.3892355471941772  0.21452118655491972  0.8224149970067537  1.0000
  C   C88       1.0  0.6107644530353235  0.7145211867565888  0.6775850030495897  1.0000
  C   C89       1.0  0.5207956097525035  0.8369592537439533  0.0173703875996899  1.0000
  C   C90       1.0  0.4792043917903894  0.33695925418082917  0.4826296122580097  1.0000
  C   C91       1.0  0.4792043911336933  0.16304074602083987  0.9826296123573316  1.0000
  C   C92       1.0  0.5207956090958075  0.6630407462225089  0.5173703876990119  1.0000
  C   C93       1.0  0.5320418006396882  0.7480907664275518  0.010603941587612962  1.0000
  C   C94       1.0  0.4679581988065883  0.24809076686442758  0.48939605858067103  1.0000
  C   C95       1.0  0.46795819816768297  0.2519092333372415  0.9893960583693263  1.0000
  C   C96       1.0  0.5320418020796085  0.7519092335389106  0.5106039413763505  1.0000
  C   C97       1.0  0.7157770070319172  0.6973501101519823  0.0327853626620478  1.0000
  C   C98       1.0  0.28422299243215027  0.19735011058885812  0.46721463719556966  1.0000
  C   C99       1.0  0.2842229917754541  0.3026498896128109  0.9672146372948917  1.0000
  C   C100      1.0  0.7157770084540466  0.80264988981448  0.5327853627614519  1.0000
  C   C101      1.0  0.8955180058834418  0.7324694293142434  0.0625326695733278  1.0000
  C   C102      1.0  0.10448199356283476  0.2324694297511193  0.4374673305949561  1.0000
  C   C103      1.0  0.10448199292392944  0.2675305704505498  0.9374673303836116  1.0000
  C   C104      1.0  0.8955180073055712  0.7675305706522187  0.5625326696727319  1.0000
  C   C105      1.0  0.885515865343028  0.8213386924626779  0.06842057341720625  1.0000
  C   C106      1.0  0.11448413412103932  0.32133869289955375  0.4315794264404113  1.0000
  C   C107      1.0  0.11448413554316873  0.17866130730211538  0.9315794265398152  1.0000
  C   C108      1.0  0.8855158646863319  0.6786613075037844  0.5684205735165282  1.0000
  C   C109      1.0  0.7017348725338487  0.8722712614871843  0.04624728690759335  1.0000
  C   C110      1.0  0.29826512691242785  0.3722712612855151  0.45375271326069055  1.0000
  C   C111      1.0  0.29826512627352253  0.12772873891615394  0.9537527130493462  1.0000
  C   C112      1.0  0.701734873955978  0.6277287384792781  0.5462472870069974  1.0000
  C   C113      1.0  0.364297639948525  0.6292995595298871  0.9711021626284655  1.0000
  C   C114      1.0  0.6357023602809756  0.12929955932821802  0.528897837427878  1.0000
  C   C115      1.0  0.6357023588588463  0.3707004408734511  0.02889783732847392  1.0000
  C   C116      1.0  0.36429764060522113  0.8707004404365752  0.47110216252914355  1.0000
  N   N1        1.0  0.6280237114940636  0.5271447775219671  0.15975248245767704  1.0000
  N   N2        1.0  0.371976287952213  0.027144777320298005  0.34024751771060696  1.0000
  N   N3        1.0  0.3719762872955169  0.4728552228813711  0.8402475178099288  1.0000
  N   N4        1.0  0.6280237108551582  0.9728552224444953  0.6597524822463325  1.0000
  N   N5        1.0  0.3458033488098134  0.8889377337449411  0.9927924172613628  1.0000
  N   N6        1.0  0.6541966514196873  0.38893773418181693  0.5072075827949807  1.0000
  N   N7        1.0  0.6541966520585925  0.11106226601985214  0.0072075830063251895  1.0000
  N   N8        1.0  0.345803347387684  0.6110622662215212  0.4927924171619587  1.0000
  O   O1        1.0  0.5865759984180586  0.08969502108998557  0.16156031176013397  1.0000
  O   O2        1.0  0.41342400104600874  0.5896950212916546  0.33843968809748354  1.0000
  O   O3        1.0  0.41342400038931265  0.9103049793133526  0.8384396881968055  1.0000
  O   O4        1.0  0.5865759977613625  0.4103049791116835  0.6615603118594559  1.0000
  O   O5        1.0  0.11393927739487937  0.8701303890704923  0.24339633938108615  1.0000
  O   O6        1.0  0.8860607220513971  0.37013038886882327  0.2566036607871978  1.0000
  O   O7        1.0  0.8860607214124918  0.1298696113328458  0.7566036605758533  1.0000
  O   O8        1.0  0.11393927675597411  0.6298696115345148  0.7433963391697416  1.0000
  O   O9        1.0  0.3418184811537216  0.2818807492413701  0.21331322501639255  1.0000
  O   O10       1.0  0.6581815203713804  0.7818807488044943  0.2866867751519735  1.0000
  O   O11       1.0  0.6581815197324752  0.7181192511619681  0.786686774940629  1.0000
  O   O12       1.0  0.3418184805148163  0.218119250960299  0.7133132248050481  1.0000
  O   O13       1.0  0.722446493930786  0.9501793014875429  0.29083694474100946  1.0000
  O   O14       1.0  0.27755350761210684  0.45017930192441863  0.20916305511669017  1.0000
  O   O15       1.0  0.27755350695541076  0.04982069827725044  0.709163055216012  1.0000
  O   O16       1.0  0.7224464932740899  0.5498206984789195  0.7908369448403313  1.0000
  O   O17       1.0  0.7355119002515735  0.3467953242095388  0.16170636256420629  1.0000
  O   O18       1.0  0.26448809921249383  0.846795324411208  0.33829363729341116  1.0000
  O   O19       1.0  0.26448809855579763  0.6532046755552544  0.8382936373927331  1.0000
  O   O20       1.0  0.7355119016737031  0.1532046753535854  0.6617063626636104  1.0000
  O   O21       1.0  0.11778109372643697  0.323023508898302  0.10658720281205862  1.0000
  O   O22       1.0  0.8822189078164558  0.8230235084614262  0.39341279704564097  1.0000
  O   O23       1.0  0.8822189071597598  0.6769764915050361  0.8934127971449628  1.0000
  O   O24       1.0  0.11778109306974081  0.17697649130336704  0.6065872029113805  1.0000
  O   O25       1.0  0.2704161841890034  0.03746924861945226  0.0586598488608255  1.0000
  O   O26       1.0  0.7295838152750641  0.5374692481825765  0.44134015099679197  1.0000
  O   O27       1.0  0.7295838166971934  0.9625307517838859  0.941340151096196  1.0000
  O   O28       1.0  0.27041618353230723  0.46253075158221685  0.5586598489601473  1.0000
  O   O29       1.0  0.6147171144305398  0.6953493766265726  0.16983513216015897  1.0000
  O   O30       1.0  0.38528288503352753  0.19534937642490355  0.33016486769745845  1.0000
  O   O31       1.0  0.38528288437683145  0.30465062377676555  0.8301648677967804  1.0000
  O   O32       1.0  0.6147171137738437  0.8046506239784346  0.6698351322594809  1.0000
  O   O33       1.0  0.3517838579557969  0.7181780011224691  0.9811641724720536  1.0000
  O   O34       1.0  0.6482161422737037  0.21817800092079995  0.5188358275842898  1.0000
  O   O35       1.0  0.6482161408515742  0.2818219986423242  0.018835827484885825  1.0000
  O   O36       1.0  0.35178385861249306  0.7818219988439933  0.4811641723727316  1.0000
