data_image0
_chemical_formula_structural       H68C32N8O16Br4
_chemical_formula_sum              "H68 C32 N8 O16 Br4"
_cell_length_a       18.56800235009992
_cell_length_b       6.267022816000332
_cell_length_c       11.161494448951485
_cell_angle_alpha    90.0
_cell_angle_beta     107.75977538607064
_cell_angle_gamma    90.0

_space_group_name_H-M_alt    "P 1"
_space_group_IT_number       1

loop_
  _space_group_symop_operation_xyz
  'x, y, z'

loop_
  _atom_site_type_symbol
  _atom_site_label
  _atom_site_symmetry_multiplicity
  _atom_site_fract_x
  _atom_site_fract_y
  _atom_site_fract_z
  _atom_site_occupancy
  H   H1        1.0  0.25947897273506554  0.516749459046461  0.2560474891133791  1.0000
  H   H2        1.0  0.740521027623934  0.516749459046461  0.7439525109869716  1.0000
  H   H3        1.0  0.7594789725150536  0.01674945872735665  0.2560474888891175  1.0000
  H   H4        1.0  0.2405210273023185  0.01674945872735665  0.7439525111940161  1.0000
  H   H5        1.0  0.0943944319806426  0.7849181811562979  0.4895508022146977  1.0000
  H   H6        1.0  0.9056055678367295  0.7849181811562979  0.5104491978684359  1.0000
  H   H7        1.0  0.5943944323022582  0.2849181824328475  0.4895508020076532  1.0000
  H   H8        1.0  0.4056055680567415  0.2849181824328475  0.5104491980926975  1.0000
  H   H9        1.0  0.18285407055184286  0.8895361631311005  0.5252091309925884  1.0000
  H   H10       1.0  0.8171459292655292  0.8895361631311005  0.47479086909054524  1.0000
  H   H11       1.0  0.6828540703318308  0.3895361628119962  0.5252091307683268  1.0000
  H   H12       1.0  0.31714592948554127  0.3895361628119962  0.47479086931480685  1.0000
  H   H13       1.0  0.08055717969322612  0.7615846152361841  0.2794578837866686  1.0000
  H   H14       1.0  0.9194428201241458  0.7615846152361841  0.720542116296465  1.0000
  H   H15       1.0  0.5805571794732141  0.2615846149170798  0.279457883562407  1.0000
  H   H16       1.0  0.419442820344158  0.2615846149170798  0.7205421165207266  1.0000
  H   H17       1.0  0.13004380526926107  0.027386265382951958  0.17199386161265395  1.0000
  H   H18       1.0  0.8699561945481109  0.027386265382951958  0.8280061384704797  1.0000
  H   H19       1.0  0.6300438050492491  0.5273862641064023  0.1719938613883923  1.0000
  H   H20       1.0  0.3699561947681229  0.5273862641064023  0.8280061386947413  1.0000
  H   H21       1.0  0.20188784470119228  0.10711986531883155  0.3126098915998358  1.0000
  H   H22       1.0  0.7981121549535689  0.10711986531883155  0.6873901075426844  1.0000
  H   H23       1.0  0.7018878451854186  0.6071198640422819  0.31260989233340475  1.0000
  H   H24       1.0  0.298112155173581  0.6071198640422819  0.687390107766946  1.0000
  H   H25       1.0  0.09600930970014224  0.3558550535840082  0.30794770535418803  1.0000
  H   H26       1.0  0.9039906901172299  0.3558550535840082  0.6920522947289456  1.0000
  H   H27       1.0  0.5960093100217577  0.8558550523074585  0.30794770514714354  1.0000
  H   H28       1.0  0.40399069033724183  0.8558550523074585  0.6920522949532073  1.0000
  H   H29       1.0  0.029675567099201352  0.14537512735296731  0.25528081858538076  1.0000
  H   H30       1.0  0.9703244332597983  0.14537512735296731  0.74471918151497  1.0000
  H   H31       1.0  0.5296755668791894  0.6453751276720717  0.25528081836111916  1.0000
  H   H32       1.0  0.47032443347981034  0.6453751276720717  0.7447191817392317  1.0000
  H   H33       1.0  0.1399308173338159  0.2166567858239513  0.5180501048593587  1.0000
  H   H34       1.0  0.8600691824835562  0.2166567858239513  0.4819498952237749  1.0000
  H   H35       1.0  0.6399308171138038  0.7166567861430556  0.5180501046350969  1.0000
  H   H36       1.0  0.3600691827035682  0.7166567861430556  0.48194989544803657  1.0000
  H   H37       1.0  0.04616075768005099  0.11575559421099794  0.47679580171826025  1.0000
  H   H38       1.0  0.9538392426789487  0.11575559421099794  0.5232041983820905  1.0000
  H   H39       1.0  0.546160757460039  0.6157555945301022  0.47679580149399864  1.0000
  H   H40       1.0  0.45383924235733314  0.6157555945301022  0.523204198589135  1.0000
  H   H41       1.0  0.3926255274215038  0.15131381165214985  0.01170829537765275  1.0000
  H   H42       1.0  0.6073744729374959  0.15131381165214985  0.988291704722698  1.0000
  H   H43       1.0  0.8926255272014917  0.6513138119712543  0.011708295153391108  1.0000
  H   H44       1.0  0.10737447261588033  0.6513138119712543  0.9882917049297426  1.0000
  H   H45       1.0  0.3061746726916246  0.028905189165341377  0.9793327000978848  1.0000
  H   H46       1.0  0.6938253271257475  0.028905189165341377  0.020667299985248886  1.0000
  H   H47       1.0  0.8061746730132401  0.5289051894844456  0.9793326998908403  1.0000
  H   H48       1.0  0.1938253273457595  0.5289051894844456  0.020667300209510523  1.0000
  H   H49       1.0  0.4133482724176197  0.09869747855725172  0.2357301034754139  1.0000
  H   H50       1.0  0.5866517273997522  0.09869747855725172  0.7642698966077197  1.0000
  H   H51       1.0  0.9133482727392352  0.598697478876356  0.2357301032683694  1.0000
  H   H52       1.0  0.08665172761976436  0.598697478876356  0.7642698968319814  1.0000
  H   H53       1.0  0.32585561519849576  0.9593688768213481  0.19775180020499672  1.0000
  H   H54       1.0  0.6741443846188764  0.9593688768213481  0.802248199878137  1.0000
  H   H55       1.0  0.8258556151410945  0.4593688765022437  0.1977518009213485  1.0000
  H   H56       1.0  0.17414438467627752  0.4593688765022437  0.8022481991617851  1.0000
  H   H57       1.0  0.4053545164337314  0.8038087442635112  0.9443483756898252  1.0000
  H   H58       1.0  0.5946454833836408  0.8038087442635112  0.055651624393308424  1.0000
  H   H59       1.0  0.9053545162137192  0.3038087439444068  0.9443483754655635  1.0000
  H   H60       1.0  0.09464548360365277  0.3038087439444068  0.05565162461757006  1.0000
  H   H61       1.0  0.36299664276984744  0.6965168115960101  0.05569224073355576  1.0000
  H   H62       1.0  0.6370033570475246  0.6965168115960101  0.944307759349578  1.0000
  H   H63       1.0  0.862996643091463  0.19651681127690582  0.0556922405265113  1.0000
  H   H64       1.0  0.1370033572675367  0.19651681127690582  0.9443077595738396  1.0000
  H   H65       1.0  0.45413078443600907  0.8241092384112563  0.10795626883894376  1.0000
  H   H66       1.0  0.545869215381363  0.8241092384112563  0.8920437312441899  1.0000
  H   H67       1.0  0.954130784215997  0.324109238092152  0.1079562686146821  1.0000
  H   H68       1.0  0.04586921560137504  0.324109238092152  0.8920437314684515  1.0000
  C   C1        1.0  0.19683912747701152  0.6695542721317225  0.34710460984221175  1.0000
  C   C2        1.0  0.8031608723403605  0.6695542721317225  0.6528953902409217  1.0000
  C   C3        1.0  0.696839127798627  0.16955427340827217  0.3471046096351673  1.0000
  C   C4        1.0  0.30316087256037255  0.16955427340827217  0.6528953904651834  1.0000
  C   C5        1.0  0.13504598504823553  0.83341535579942  0.3340344528750832  1.0000
  C   C6        1.0  0.864954015310764  0.83341535579942  0.6659655472252676  1.0000
  C   C7        1.0  0.6350459848282235  0.33341535548031576  0.3340344526508216  1.0000
  C   C8        1.0  0.36495401553077617  0.33341535548031576  0.6659655474495292  1.0000
  C   C9        1.0  0.1438680375987687  0.04669195702509862  0.27394832094850835  1.0000
  C   C10       1.0  0.856131962760231  0.04669195702509862  0.7260516791518424  1.0000
  C   C11       1.0  0.6438680373787565  0.546691955748549  0.2739483207242467  1.0000
  C   C12       1.0  0.3561319624386154  0.546691955748549  0.7260516793588869  1.0000
  C   C13       1.0  0.08727528788828724  0.18428246456218725  0.31440290330379894  1.0000
  C   C14       1.0  0.9127247124707123  0.18428246456218725  0.6855970967965518  1.0000
  C   C15       1.0  0.5872752876682752  0.6842824648812915  0.31440290307953733  1.0000
  C   C16       1.0  0.4127247126907244  0.6842824648812915  0.6855970970208135  1.0000
  C   C17       1.0  0.09827196632150752  0.11723926840095952  0.45081278712439316  1.0000
  C   C18       1.0  0.9017280338748812  0.11723926840095952  0.5491872120353442  1.0000
  C   C19       1.0  0.5982719662641063  0.6172392687200638  0.45081278784074497  1.0000
  C   C20       1.0  0.40172803355326575  0.6172392687200638  0.5491872122423885  1.0000
  C   C21       1.0  0.31316924910422156  0.29567642793147  0.16266995454757172  1.0000
  C   C22       1.0  0.6868307507131506  0.29567642793147  0.8373300455355618  1.0000
  C   C23       1.0  0.8131692494258371  0.7956764282505743  0.16266995434052725  1.0000
  C   C24       1.0  0.18683075093316256  0.7956764282505743  0.8373300457598236  1.0000
  C   C25       1.0  0.35649062234034506  0.08810565179215246  0.16742377057020436  1.0000
  C   C26       1.0  0.6435093780186545  0.08810565179215246  0.8325762295301464  1.0000
  C   C27       1.0  0.8564906221203331  0.5881056521112568  0.16742377034594275  1.0000
  C   C28       1.0  0.14350937823866652  0.5881056521112568  0.8325762297544079  1.0000
  C   C29       1.0  0.3984004520766776  0.8244405871331243  0.03738451513145435  1.0000
  C   C30       1.0  0.6015995482823221  0.8244405871331243  0.9626154849688965  1.0000
  C   C31       1.0  0.8984004518566656  0.32444058681402005  0.037384514907192704  1.0000
  C   C32       1.0  0.10159954796070647  0.32444058681402005  0.9626154851759409  1.0000
  N   N1        1.0  0.12925831800929674  0.892969764799992  0.4605834482648941  1.0000
  N   N2        1.0  0.870741682349703  0.892969764799992  0.5394165518354567  1.0000
  N   N3        1.0  0.6292583177892848  0.3929697644808877  0.46058344804063245  1.0000
  N   N4        1.0  0.3707416818654765  0.3929697644808877  0.5394165511018878  1.0000
  N   N5        1.0  0.3614518862886543  0.033391311336178314  0.04093253751230812  1.0000
  N   N6        1.0  0.6385481135287178  0.033391311336178314  0.9590674625708255  1.0000
  N   N7        1.0  0.8614518860686423  0.5333913116552826  0.04093253728804649  1.0000
  N   N8        1.0  0.13854811374872975  0.5333913116552826  0.959067462795087  1.0000
  O   O1        1.0  0.2153634907636333  0.6446886741316415  0.24396693981277146  1.0000
  O   O2        1.0  0.7846365090537388  0.6446886741316415  0.7560330602703621  1.0000
  O   O3        1.0  0.7153634910852488  0.14468867381253714  0.243966939605727  1.0000
  O   O4        1.0  0.2846365092737508  0.14468867381253714  0.7560330604946237  1.0000
  O   O5        1.0  0.22475276521015794  0.571179559273494  0.447104248382765  1.0000
  O   O6        1.0  0.7752472346072141  0.571179559273494  0.5528957517003685  1.0000
  O   O7        1.0  0.724752764990146  0.07117955895438956  0.44710424815850336  1.0000
  O   O8        1.0  0.2752472348272262  0.07117955895438956  0.5528957519246303  1.0000
  O   O9        1.0  0.3087891624665215  0.3586769804413428  0.26980998063457756  1.0000
  O   O10       1.0  0.6912108378924781  0.3586769804413428  0.7301900194657732  1.0000
  O   O11       1.0  0.8087891622465094  0.8586769807604472  0.26980998041031595  1.0000
  O   O12       1.0  0.19121083757086257  0.8586769807604472  0.7301900196728176  1.0000
  O   O13       1.0  0.2844428182632721  0.3860894624194507  0.058848956610566126  1.0000
  O   O14       1.0  0.7155571813914892  0.3860894624194507  0.9411510425319543  1.0000
  O   O15       1.0  0.7844428187474984  0.886089462738555  0.05884895734413506  1.0000
  O   O16       1.0  0.21555718161150114  0.886089462738555  0.9411510427562157  1.0000
  Br  Br1       1.0  0.49999999977998794  0.3168359807037114  0.9999999997757384  1.0000
  Br  Br2       1.0  0.0  0.8168359810228157  0.0  1.0000
  Br  Br3       1.0  4.73926422362651e-11  0.585546030027379  0.49999999979552173  1.0000
  Br  Br4       1.0  0.49999999982738064  0.08554602970827475  0.4999999995712601  1.0000
