data_image0
_chemical_formula_structural       H68C32N8O16I4
_chemical_formula_sum              "H68 C32 N8 O16 I4"
_cell_length_a       18.803848176160486
_cell_length_b       6.539545317854738
_cell_length_c       11.006099684758228
_cell_angle_alpha    90.0
_cell_angle_beta     106.04734994617357
_cell_angle_gamma    90.0

_space_group_name_H-M_alt    "P 1"
_space_group_IT_number       1

loop_
  _space_group_symop_operation_xyz
  'x, y, z'

loop_
  _atom_site_type_symbol
  _atom_site_label
  _atom_site_symmetry_multiplicity
  _atom_site_fract_x
  _atom_site_fract_y
  _atom_site_fract_z
  _atom_site_occupancy
  H   H1        1.0  0.26221638688961263  0.5273437956893449  0.2522984380235929  1.0000
  H   H2        1.0  0.7377836132908613  0.5273437956893449  0.7477015622814723  1.0000
  H   H3        1.0  0.7622163867350568  0.02734379552532249  0.2522984374413115  1.0000
  H   H4        1.0  0.23778361344541718  0.02734379552532249  0.7477015628637537  1.0000
  H   H5        1.0  0.18746491938679505  0.9224127346484721  0.519776798807621  1.0000
  H   H6        1.0  0.8125350806494315  0.9224127346484721  0.48022320055214385  1.0000
  H   H7        1.0  0.6874649193764867  0.42241273448444977  0.51977679917064  1.0000
  H   H8        1.0  0.3125350808039873  0.42241273448444977  0.4802232011344252  1.0000
  H   H9        1.0  0.10519428644462528  0.7961780776691691  0.49344221977461483  1.0000
  H   H10       1.0  0.8948057137358486  0.7961780776691691  0.5065577805304503  1.0000
  H   H11       1.0  0.6051942862900694  0.29617807750514674  0.4934422191923335  1.0000
  H   H12       1.0  0.3948057132119195  0.29617807750514674  0.5065577801519634  1.0000
  H   H13       1.0  0.08899771958703738  0.7808634059095652  0.2757169673550053  1.0000
  H   H14       1.0  0.9110022805934366  0.7808634059095652  0.7242830329500598  1.0000
  H   H15       1.0  0.5889977194324816  0.28086340574554286  0.2757169667727239  1.0000
  H   H16       1.0  0.4110022806037449  0.28086340574554286  0.7242830325870407  1.0000
  H   H17       1.0  0.14462360866535962  0.03248458106406822  0.17058968673843594  1.0000
  H   H18       1.0  0.8553763915151142  0.03248458106406822  0.8294103135666292  1.0000
  H   H19       1.0  0.6446236086550512  0.5324845812280905  0.170589687101455  1.0000
  H   H20       1.0  0.35537639152542266  0.5324845812280905  0.82941031320361  1.0000
  H   H21       1.0  0.2126951267643032  0.10045758199830136  0.3136303371082144  1.0000
  H   H22       1.0  0.7873048732719232  0.10045758199830136  0.6863696622515503  1.0000
  H   H23       1.0  0.7126951267539948  0.6004575821623237  0.3136303374712335  1.0000
  H   H24       1.0  0.2873048734264791  0.6004575821623237  0.6863696628338317  1.0000
  H   H25       1.0  0.11733373931895916  0.3508426486067459  0.3183662046620937  1.0000
  H   H26       1.0  0.8826662608615148  0.3508426486067459  0.6816337956429714  1.0000
  H   H27       1.0  0.6173337393086509  0.85084264724161  0.3183662050251128  1.0000
  H   H28       1.0  0.3826662608718231  0.85084264724161  0.6816337952799523  1.0000
  H   H29       1.0  0.04591654395768562  0.1779590083767122  0.24286781937291654  1.0000
  H   H30       1.0  0.9540834560785408  0.1779590083767122  0.7571321799868481  1.0000
  H   H31       1.0  0.5459165439473772  0.6779590085407344  0.24286781973593566  1.0000
  H   H32       1.0  0.45408345623309665  0.6779590085407344  0.7571321805691296  1.0000
  H   H33       1.0  0.12478154308904398  0.20766783071173853  0.5204530294897286  1.0000
  H   H34       1.0  0.8752184565571924  0.20766783071173853  0.47954697079986874  1.0000
  H   H35       1.0  0.6247815434687256  0.7076678308757608  0.5204530289229151  1.0000
  H   H36       1.0  0.3752184567117483  0.7076678308757608  0.4795469713821501  1.0000
  H   H37       1.0  0.039497573846622606  0.08528861608729803  0.4457077277210929  1.0000
  H   H38       1.0  0.9605024263338515  0.08528861608729803  0.5542922725839723  1.0000
  H   H39       1.0  0.5394975738363142  0.5852886147221621  0.44570772808411196  1.0000
  H   H40       1.0  0.46050242634415967  0.5852886147221621  0.5542922722209532  1.0000
  H   H41       1.0  0.3818473066120355  0.13829572180358873  0.003080355861301713  1.0000
  H   H42       1.0  0.6181526935684384  0.13829572180358873  0.9969196444437634  1.0000
  H   H43       1.0  0.8818473066017269  0.638295721967611  0.0030803562243207935  1.0000
  H   H44       1.0  0.11815269357874685  0.638295721967611  0.9969196440807444  1.0000
  H   H45       1.0  0.30076583821469866  0.007084887059884914  0.9869034061813725  1.0000
  H   H46       1.0  0.6992341619657753  0.007084887059884914  0.013096594123692542  1.0000
  H   H47       1.0  0.8007658380601428  0.5070848872239072  0.9869034055990912  1.0000
  H   H48       1.0  0.19923416212033107  0.5070848872239072  0.013096594705973904  1.0000
  H   H49       1.0  0.41019627907024364  0.11296259664767251  0.2320271128236705  1.0000
  H   H50       1.0  0.5898037204317452  0.11296259664767251  0.7679728865206265  1.0000
  H   H51       1.0  0.9101962795941729  0.6129625968116948  0.2320271132021574  1.0000
  H   H52       1.0  0.0898037205863011  0.6129625968116948  0.7679728871029077  1.0000
  H   H53       1.0  0.3249987914719346  0.9809076913170326  0.2109533035393967  1.0000
  H   H54       1.0  0.6750012087085393  0.9809076913170326  0.7890466967656685  1.0000
  H   H55       1.0  0.8249987913173787  0.48090769115301024  0.21095330295711534  1.0000
  H   H56       1.0  0.17500120871884772  0.48090769115301024  0.7890466964026495  1.0000
  H   H57       1.0  0.4003964025864993  0.7952296019421082  0.9526534297769459  1.0000
  H   H58       1.0  0.5996035975939746  0.7952296019421082  0.04734657052811914  1.0000
  H   H59       1.0  0.9003964024319434  0.2952296017780858  0.9526534291946647  1.0000
  H   H60       1.0  0.09960359760428299  0.2952296017780858  0.04734657016510006  1.0000
  H   H61       1.0  0.3655293895837763  0.7088149809657706  0.07937554375470439  1.0000
  H   H62       1.0  0.6344706105966976  0.7088149809657706  0.9206244565503606  1.0000
  H   H63       1.0  0.8655293895734679  0.2088149808017483  0.07937554411772348  1.0000
  H   H64       1.0  0.134470610607006  0.2088149808017483  0.9206244561873418  1.0000
  H   H65       1.0  0.4517347491771981  0.8471327180614022  0.11164034516210308  1.0000
  H   H66       1.0  0.5482652508590283  0.8471327180614022  0.8883596541976615  1.0000
  H   H67       1.0  0.9517347491668896  0.3471327178973799  0.11164034552512216  1.0000
  H   H68       1.0  0.048265250479346704  0.3471327178973799  0.8883596547644751  1.0000
  C   C1        1.0  0.20176171326348577  0.6843270216021778  0.34469195235467154  1.0000
  C   C2        1.0  0.7982382863827506  0.6843270216021778  0.6553080479349257  1.0000
  C   C3        1.0  0.7017617137874149  0.18432702143815557  0.34469195273315845  1.0000
  C   C4        1.0  0.29823828639305894  0.18432702143815557  0.6553080475719066  1.0000
  C   C5        1.0  0.14245232652970943  0.8454144059381847  0.3314252972421871  1.0000
  C   C6        1.0  0.857547673506517  0.8454144059381847  0.6685747021175776  1.0000
  C   C7        1.0  0.6424523265194011  0.34541440577416244  0.3314252976052062  1.0000
  C   C8        1.0  0.35754767312683533  0.34541440577416244  0.6685747026843911  1.0000
  C   C9        1.0  0.1554547481038087  0.04908402868982612  0.2730632740614152  1.0000
  C   C10       1.0  0.8445452520766653  0.04908402868982612  0.7269367262436499  1.0000
  C   C11       1.0  0.6554547479492528  0.5490840288538484  0.2730632734791338  1.0000
  C   C12       1.0  0.3445452520869736  0.5490840288538484  0.726936725880631  1.0000
  C   C13       1.0  0.10042224382050355  0.19036862495638926  0.3119947129734422  1.0000
  C   C14       1.0  0.8995777556814853  0.19036862495638926  0.6880052863708547  1.0000
  C   C15       1.0  0.6004222438101952  0.6903686251204115  0.31199471333646134  1.0000
  C   C16       1.0  0.3995777558360412  0.6903686251204115  0.688005286953136  1.0000
  C   C17       1.0  0.09628134168036633  0.10998014770787402  0.4413927279093365  1.0000
  C   C18       1.0  0.9037186578216225  0.10998014770787402  0.5586072714349603  1.0000
  C   C19       1.0  0.5962813422042955  0.6099801478718964  0.44139272828782344  1.0000
  C   C20       1.0  0.40371865797617845  0.6099801478718964  0.5586072720172417  1.0000
  C   C21       1.0  0.3120053870774585  0.29894260609563456  0.16071463723599413  1.0000
  C   C22       1.0  0.6879946129587678  0.29894260609563456  0.8392853621237705  1.0000
  C   C23       1.0  0.8120053870671502  0.7989426062596569  0.1607146375990132  1.0000
  C   C24       1.0  0.18799461311332377  0.7989426062596569  0.8392853627060519  1.0000
  C   C25       1.0  0.35352643868373473  0.09753285113853047  0.16992244322081207  1.0000
  C   C26       1.0  0.6464735608182542  0.09753285113853047  0.8300775561234848  1.0000
  C   C27       1.0  0.8535264386734264  0.5975328513025527  0.16992244358383118  1.0000
  C   C28       1.0  0.14647356097281003  0.5975328513025527  0.8300775567057662  1.0000
  C   C29       1.0  0.39608242190008497  0.8305645845393085  0.047473655015189756  1.0000
  C   C30       1.0  0.603917578280389  0.8305645845393085  0.9525263452898752  1.0000
  C   C31       1.0  0.8960824217455291  0.33056458437528613  0.04747365443290839  1.0000
  C   C32       1.0  0.1039175782906973  0.33056458437528613  0.9525263449268564  1.0000
  N   N1        1.0  0.13482021465876137  0.905670806168968  0.4578906494108895  1.0000
  N   N2        1.0  0.8651797853774651  0.905670806168968  0.5421093499488752  1.0000
  N   N3        1.0  0.6348202146484531  0.40567080600494565  0.4578906497739086  1.0000
  N   N4        1.0  0.3651797855320209  0.40567080600494565  0.5421093505311566  1.0000
  N   N5        1.0  0.3556198049191101  0.026584224368832746  0.04309230867282455  1.0000
  N   N6        1.0  0.6443801947271264  0.026584224368832746  0.9569076916167728  1.0000
  N   N7        1.0  0.8556198049088017  0.526584224532855  0.04309230903584363  1.0000
  N   N8        1.0  0.14438019473743471  0.526584224532855  0.9569076912537536  1.0000
  O   O1        1.0  0.21943236438350255  0.6516607214823895  0.23959326501531056  1.0000
  O   O2        1.0  0.7805676357969713  0.6516607214823895  0.7604067352897547  1.0000
  O   O3        1.0  0.7194323642289467  0.15166072131836714  0.23959326443302917  1.0000
  O   O4        1.0  0.2805676354172897  0.15166072131836714  0.7604067358565683  1.0000
  O   O5        1.0  0.22863998166528693  0.5951223060377374  0.4468120161960491  1.0000
  O   O6        1.0  0.7713600179809494  0.5951223060377374  0.5531879840935482  1.0000
  O   O7        1.0  0.7286399815107312  0.09512230740287345  0.44681201561376765  1.0000
  O   O8        1.0  0.2713600179912578  0.09512230740287345  0.5531879837305291  1.0000
  O   O9        1.0  0.310201638759297  0.3738496869690638  0.2677102126325413  1.0000
  O   O10       1.0  0.6897983614211769  0.3738496869690638  0.7322897876725238  1.0000
  O   O11       1.0  0.8102016386047413  0.8738496871330861  0.2677102120502599  1.0000
  O   O12       1.0  0.18979836089724778  0.8738496871330861  0.7322897872940369  1.0000
  O   O13       1.0  0.2823972467458855  0.3738641772731131  0.053671843660885954  1.0000
  O   O14       1.0  0.7176027534345885  0.3738641772731131  0.9463281566441791  1.0000
  O   O15       1.0  0.7823972465913297  0.8738641774371354  0.05367184307860458  1.0000
  O   O16       1.0  0.2176027534448968  0.8738641774371354  0.9463281562811601  1.0000
  I   I1        1.0  0.4999999999896917  0.3255927922368893  3.6301908446232393e-10  1.0000
  I   I2        1.0  0.0  0.8255927924009117  0.0  1.0000
  I   I3        1.0  0.9999999999055503  0.5766418652538748  0.5000000002544298  1.0000
  I   I4        1.0  0.49999999975099446  0.0766418650898526  0.4999999996721485  1.0000
