data_image0
_chemical_formula_structural       H68C28N8O16I4
_chemical_formula_sum              "H68 C28 N8 O16 I4"
_cell_length_a       18.937218614099937
_cell_length_b       5.454390216341333
_cell_length_c       11.879823639155827
_cell_angle_alpha    90.0
_cell_angle_beta     90.0
_cell_angle_gamma    90.0

_space_group_name_H-M_alt    "P 1"
_space_group_IT_number       1

loop_
  _space_group_symop_operation_xyz
  'x, y, z'

loop_
  _atom_site_type_symbol
  _atom_site_label
  _atom_site_symmetry_multiplicity
  _atom_site_fract_x
  _atom_site_fract_y
  _atom_site_fract_z
  _atom_site_occupancy
  H   H1        1.0  0.39138459776144224  0.7813449150065909  0.45482949361224306  1.0000
  H   H2        1.0  0.6086154020220562  0.21865508566418373  0.9548294936477727  1.0000
  H   H3        1.0  0.8913845979172217  0.7186550859995711  0.45482949361224306  1.0000
  H   H4        1.0  0.10861540186627669  0.28134491467120354  0.9548294936477727  1.0000
  H   H5        1.0  0.5756918099832666  0.6063058176681518  0.05781710241355128  1.0000
  H   H6        1.0  0.42430818980023194  0.3936941830026227  0.5578171024490809  1.0000
  H   H7        1.0  0.07569180982748704  0.8936941815046244  0.05781710241355128  1.0000
  H   H8        1.0  0.9243081899560115  0.10630581733276456  0.5578171024490809  1.0000
  H   H9        1.0  0.5435263620147635  0.8062360164157358  0.9583957587108635  1.0000
  H   H10       1.0  0.45647363776873495  0.19376398242165332  0.4583957586753337  1.0000
  H   H11       1.0  0.04352636238704458  0.6937639827570405  0.9583957587108635  1.0000
  H   H12       1.0  0.9564736379245146  0.306236017913734  0.4583957586753337  1.0000
  H   H13       1.0  0.4938438542942538  0.5706495678792517  0.0014369472576794104  1.0000
  H   H14       1.0  0.5061561454892447  0.42935043095813746  0.5014369472932091  1.0000
  H   H15       1.0  0.9938438544500333  0.9293504312935247  0.0014369472576794104  1.0000
  H   H16       1.0  0.006156145333465113  0.07064956754386435  0.5014369472932091  1.0000
  H   H17       1.0  0.44542872223693314  0.5338466876235282  0.19470550996869554  1.0000
  H   H18       1.0  0.554571278074626  0.46615331304724644  0.6947055100042252  1.0000
  H   H19       1.0  0.9454287218646521  0.9661533115492483  0.19470550996869554  1.0000
  H   H20       1.0  0.05457127791884646  0.033846687288140845  0.6947055100042252  1.0000
  H   H21       1.0  0.5299600197110044  0.5918101642836321  0.25164704719576403  1.0000
  H   H22       1.0  0.4700399800724942  0.40818983638714257  0.7516470463895303  1.0000
  H   H23       1.0  0.02996002008328539  0.9081898367225298  0.25164704719576403  1.0000
  H   H24       1.0  0.9700399802282739  0.09181016394824475  0.7516470463895303  1.0000
  H   H25       1.0  0.45209634711749436  0.9394658315145614  0.08744046642041015  1.0000
  H   H26       1.0  0.5479036531940649  0.06053416732282758  0.5874404664559398  1.0000
  H   H27       1.0  0.9520963467452133  0.5605341676582148  0.08744046642041015  1.0000
  H   H28       1.0  0.04790365303828523  0.43946583301255976  0.5874404664559398  1.0000
  H   H29       1.0  0.5373866805562926  0.9885641283686568  0.14484591036591135  1.0000
  H   H30       1.0  0.46261331922720594  0.011435872302117768  0.644845910401441  1.0000
  H   H31       1.0  0.037386680928573654  0.511435872637505  0.14484591036591135  1.0000
  H   H32       1.0  0.9626133193829856  0.4885641280332695  0.644845910401441  1.0000
  H   H33       1.0  0.3082447115889431  0.6017837191343685  0.8295238455829687  1.0000
  H   H34       1.0  0.6917552881945553  0.3982162815364062  0.329523845547439  1.0000
  H   H35       1.0  0.8082447117447227  0.8982162818717935  0.8295238455829687  1.0000
  H   H36       1.0  0.1917552880387758  0.10178371879898111  0.329523845547439  1.0000
  H   H37       1.0  0.31918751708867515  0.023865492719975557  0.7534254448440635  1.0000
  H   H38       1.0  0.6808124826948234  0.9761345061174135  0.25342544480853374  1.0000
  H   H39       1.0  0.8191875172444546  0.4761345057820262  0.7534254448440635  1.0000
  H   H40       1.0  0.18081248306710446  0.5238654930553629  0.25342544480853374  1.0000
  H   H41       1.0  0.24377947121351418  0.9561436720048627  0.6677628701366569  1.0000
  H   H42       1.0  0.7562205285699843  0.04385632866591193  0.16776287010112725  1.0000
  H   H43       1.0  0.7437794713692938  0.5438563290012992  0.6677628701366569  1.0000
  H   H44       1.0  0.2562205289422654  0.4561436716694754  0.16776287010112725  1.0000
  H   H45       1.0  0.16777116295391115  0.6111055146024794  0.7186311421207806  1.0000
  H   H46       1.0  0.8322288368295873  0.3888944842349096  0.21863114292701424  1.0000
  H   H47       1.0  0.6677711631096908  0.8888944845702969  0.7186311421207806  1.0000
  H   H48       1.0  0.3322288372018684  0.11110551426709216  0.21863114292701424  1.0000
  H   H49       1.0  0.20180714907914366  0.38489589793379425  0.8146895344557268  1.0000
  H   H50       1.0  0.7981928507043549  0.6151041027369804  0.3146895344201972  1.0000
  H   H51       1.0  0.7018071492349232  0.11510410240159302  0.8146895344557268  1.0000
  H   H52       1.0  0.2981928510766359  0.8848958982691816  0.3146895344201972  1.0000
  H   H53       1.0  0.24160104676583502  0.4233798001986381  0.6784799299068343  1.0000
  H   H54       1.0  0.7583989530176635  0.5766202004721366  0.17847993071306806  1.0000
  H   H55       1.0  0.7416010469216145  0.07662020013674924  0.6784799299068343  1.0000
  H   H56       1.0  0.25839895338994456  0.9233798005340254  0.17847993071306806  1.0000
  H   H57       1.0  0.27046216154396086  0.9588513623999783  0.9290740187102895  1.0000
  H   H58       1.0  0.7295378382395376  0.04114863827079632  0.42907401867475975  1.0000
  H   H59       1.0  0.7704621616997405  0.5411486386061836  0.9290740187102895  1.0000
  H   H60       1.0  0.22953783808375802  0.45885136206459093  0.42907401867475975  1.0000
  H   H61       1.0  0.2163734302010512  0.6935255601381191  0.9572270612266482  1.0000
  H   H62       1.0  0.783626570110508  0.3064744405326555  0.4572270611911187  1.0000
  H   H63       1.0  0.7163734298287702  0.8064744390346572  0.9572270612266482  1.0000
  H   H64       1.0  0.2836265699547284  0.19352555980273178  0.4572270611911187  1.0000
  H   H65       1.0  0.18467720055763961  0.9279232250080856  0.864657282128636  1.0000
  H   H66       1.0  0.8153227992258588  0.072076775662689  0.3646572820931063  1.0000
  H   H67       1.0  0.6846772007134192  0.5720767759980763  0.864657282128636  1.0000
  H   H68       1.0  0.3153227995981399  0.4279232246726983  0.3646572820931063  1.0000
  C   C1        1.0  0.4504934100326683  0.8202360341942989  0.31667556895376003  1.0000
  C   C2        1.0  0.5495065897508302  0.17976396464309008  0.8166755689892897  1.0000
  C   C3        1.0  0.9504934101884478  0.6797639649784775  0.31667556895376003  1.0000
  C   C4        1.0  0.04950659012311133  0.3202360338589117  0.8166755689892897  1.0000
  C   C5        1.0  0.48172415157143084  0.6816628940226388  0.2195833649753883  1.0000
  C   C6        1.0  0.5182758482120676  0.31833710481475036  0.7195833650109179  1.0000
  C   C7        1.0  0.9817241517272104  0.8183371051501377  0.2195833649753883  1.0000
  C   C8        1.0  0.018275848056288038  0.18166289552063694  0.7195833650109179  1.0000
  C   C9        1.0  0.4992146382553299  0.8474124909787623  0.12092898629108646  1.0000
  C   C10       1.0  0.5007853615281685  0.15258750969201224  0.6209289863266162  1.0000
  C   C11       1.0  0.9992146384111096  0.6525875100273996  0.12092898629108646  1.0000
  C   C12       1.0  0.0007853613723889977  0.34741249064337504  0.6209289863266162  1.0000
  C   C13       1.0  0.3379928283256086  0.7587437982711824  0.622519642936847  1.0000
  C   C14       1.0  0.6620071714578898  0.24125620239959214  0.12251964290131732  1.0000
  C   C15       1.0  0.8379928284813882  0.7412562009015939  0.622519642936847  1.0000
  C   C16       1.0  0.16200717183017094  0.2587437979357951  0.12251964290131732  1.0000
  C   C17       1.0  0.29005696675594245  0.8768651600449953  0.7102254121172756  1.0000
  C   C18       1.0  0.7099430335556166  0.12313484062577928  0.2102254120817459  1.0000
  C   C19       1.0  0.7900569663836614  0.6231348409611667  0.7102254121172756  1.0000
  C   C20       1.0  0.2099430333998371  0.376865159709608  0.2102254120817459  1.0000
  C   C21       1.0  0.21513336583476061  0.515747874358529  0.748289048727973  1.0000
  C   C22       1.0  0.7848666339487379  0.48425212631224557  0.24828904869244328  1.0000
  C   C23       1.0  0.7151333659905402  0.9842521266476328  0.748289048727973  1.0000
  C   C24       1.0  0.2848666337929583  0.015747874023141713  0.24828904869244328  1.0000
  C   C25       1.0  0.23164657172694825  0.8301716929665001  0.8942675685002776  1.0000
  C   C26       1.0  0.7683534280565503  0.16982830770427443  0.3942675684647478  1.0000
  C   C27       1.0  0.7316465718827279  0.6698283080396618  0.8942675685002776  1.0000
  C   C28       1.0  0.2683534279007707  0.3301716926311129  0.3942675684647478  1.0000
  N   N1        1.0  0.5306078973243971  0.6992548403620341  0.028856309690499723  1.0000
  N   N2        1.0  0.46939210298716205  0.3007451603087405  0.5288563097260294  1.0000
  N   N3        1.0  0.030607897168617497  0.8007451606441277  0.028856309690499723  1.0000
  N   N4        1.0  0.9693921026148811  0.19925484002664684  0.5288563097260294  1.0000
  N   N5        1.0  0.2646005879801772  0.7000480179361355  0.796960959823876  1.0000
  N   N6        1.0  0.735399412331382  0.2999519827346391  0.29696095978834636  1.0000
  N   N7        1.0  0.7646005876078962  0.7999519830700264  0.796960959823876  1.0000
  N   N8        1.0  0.23539941217560237  0.20004801760074822  0.29696095978834636  1.0000
  O   O1        1.0  0.41511857576311945  0.6788564831512384  0.3871331679404297  1.0000
  O   O2        1.0  0.5848814245484397  0.32114351568615074  0.8871331679759594  1.0000
  O   O3        1.0  0.9151185753908383  0.821143516021538  0.3871331679404297  1.0000
  O   O4        1.0  0.08488142439266014  0.1788564846492366  0.8871331679759594  1.0000
  O   O5        1.0  0.457325799869667  0.04506362035917422  0.3286937288470954  1.0000
  O   O6        1.0  0.5426741999138315  0.9549363784782149  0.8286937288826252  1.0000
  O   O7        1.0  0.9573258000254465  0.4549363799762131  0.3286937288470954  1.0000
  O   O8        1.0  0.04267419975805193  0.5450636206945615  0.8286937288826252  1.0000
  O   O9        1.0  0.35376680369586644  0.9013852997297777  0.540754391237452  1.0000
  O   O10       1.0  0.646233196087632  0.09861469910761139  0.04075439120192223  1.0000
  O   O11       1.0  0.8537668038516459  0.5986146994429986  0.540754391237452  1.0000
  O   O12       1.0  0.14623319645991315  0.4013853012277759  0.04075439120192223  1.0000
  O   O13       1.0  0.3584873163446163  0.5416660071640006  0.6364470727561466  1.0000
  O   O14       1.0  0.6415126834388822  0.4583339916733884  0.13644707272061699  1.0000
  O   O15       1.0  0.8584873165003959  0.9583339920087757  0.6364470727561466  1.0000
  O   O16       1.0  0.1415126838111633  0.04166600682861338  0.13644707272061699  1.0000
  I   I1        1.0  0.3716557554423371  0.35934037394829194  0.9719054121261733  1.0000
  I   I2        1.0  0.628344244869222  0.6406596267224827  0.47190541209064363  1.0000
  I   I3        1.0  0.8716557550700561  0.1406596263870953  0.9719054121261733  1.0000
  I   I4        1.0  0.12834424471344247  0.8593403742836793  0.47190541209064363  1.0000
