data_image0
_chemical_formula_structural       H76C32N8O16Br4
_chemical_formula_sum              "H76 C32 N8 O16 Br4"
_cell_length_a       9.048642332039728
_cell_length_b       6.823968701214258
_cell_length_c       19.857387567591825
_cell_angle_alpha    90.0
_cell_angle_beta     101.1342106858795
_cell_angle_gamma    90.0

_space_group_name_H-M_alt    "P 1"
_space_group_IT_number       1

loop_
  _space_group_symop_operation_xyz
  'x, y, z'

loop_
  _atom_site_type_symbol
  _atom_site_label
  _atom_site_symmetry_multiplicity
  _atom_site_fract_x
  _atom_site_fract_y
  _atom_site_fract_z
  _atom_site_occupancy
  H   H1        1.0  0.6180418792281269  0.32602879312798094  0.3553737227477953  1.0000
  H   H2        1.0  0.618041878848371  0.673971206694079  0.8553737229902134  1.0000
  H   H3        1.0  0.11804187960703116  0.8260287930390109  0.35537372269521994  1.0000
  H   H4        1.0  0.11804187922727537  0.173971206783049  0.855373722937638  1.0000
  H   H5        1.0  0.7850920395675568  0.2526476930782553  0.40109710870289894  1.0000
  H   H6        1.0  0.78509203897491  0.7473523067438046  0.90109710843207  1.0000
  H   H7        1.0  0.28509203994646115  0.7526476929892852  0.40109710865032355  1.0000
  H   H8        1.0  0.28509203935381416  0.24735230683277468  0.9010971083794946  1.0000
  H   H9        1.0  0.623564899075058  0.18648844033730036  0.4268168124022958  1.0000
  H   H10       1.0  0.6235648986953023  0.8135115594847595  0.9268168126447139  1.0000
  H   H11       1.0  0.12356489834792612  0.6864884402483303  0.42681681234757873  1.0000
  H   H12       1.0  0.12356489907420654  0.3135115595737296  0.9268168125921386  1.0000
  H   H13       1.0  0.5558770374788385  0.5496518278773144  0.4715797081669171  1.0000
  H   H14       1.0  0.5558770368861916  0.4503481719447455  0.9715797078960882  1.0000
  H   H15       1.0  0.055877036751706646  0.04965182796628447  0.4715797081121999  1.0000
  H   H16       1.0  0.05587703726509584  0.9503481718557755  0.9715797078435128  1.0000
  H   H17       1.0  0.8187760892929242  0.861116830584874  0.40987273592087026  1.0000
  H   H18       1.0  0.8187760900192048  0.138883169237186  0.9098727361654302  1.0000
  H   H19       1.0  0.3187760896718286  0.361116830673844  0.4098727358682949  1.0000
  H   H20       1.0  0.3187760892920729  0.638883169148216  0.9098727361107131  1.0000
  H   H21       1.0  0.7317628550053901  0.7390923245445941  0.33442500376684575  1.0000
  H   H22       1.0  0.7317628557316705  0.2609076752774659  0.8344250040114056  1.0000
  H   H23       1.0  0.23176285538429434  0.23909232463356409  0.3344250037142704  1.0000
  H   H24       1.0  0.23176285500453858  0.7609076766539187  0.8344250039566885  1.0000
  H   H25       1.0  0.7423667333656274  0.07242389167348595  0.30133158173210906  1.0000
  H   H26       1.0  0.7423667329858717  0.927576108148574  0.8013315819745273  1.0000
  H   H27       1.0  0.24236673374453166  0.5724238915845159  0.3013315816795337  1.0000
  H   H28       1.0  0.2423667333647759  0.427576108237544  0.8013315819219519  1.0000
  H   H29       1.0  0.5503960441985033  0.030011644098478667  0.30766624662704595  1.0000
  H   H30       1.0  0.5503960436058563  0.9699883557235813  0.807666246356217  1.0000
  H   H31       1.0  0.050396044577407546  0.5300116440095086  0.30766624657447056  1.0000
  H   H32       1.0  0.050396043984760525  0.4699883558125513  0.8076662463036416  1.0000
  H   H33       1.0  0.4089238671662308  0.3504953766236366  0.6265323253962773  1.0000
  H   H34       1.0  0.4089238675459866  0.6495046246638462  0.12653232515385932  1.0000
  H   H35       1.0  0.9089238678933627  0.8504953765346666  0.6265323254509946  1.0000
  H   H36       1.0  0.9089238671670823  0.14950462475281617  0.12653232520643465  1.0000
  H   H37       1.0  0.2758401052397805  0.2292044598214067  0.5615081574236345  1.0000
  H   H38       1.0  0.2758401045135001  0.7707955400006532  0.061508157179074624  1.0000
  H   H39       1.0  0.7758401048608762  0.7292044597324366  0.5615081574762099  1.0000
  H   H40       1.0  0.7758401052406321  0.27079554008962325  0.06150815723379175  1.0000
  H   H41       1.0  0.2889777641250792  0.8699959876638357  0.5501661470075698  1.0000
  H   H42       1.0  0.2889777633987988  0.13000401215822424  0.050166146763009935  1.0000
  H   H43       1.0  0.7889777637461749  0.36999598775280573  0.5501661470601451  1.0000
  H   H44       1.0  0.7889777630198945  0.6300040120692542  0.05016614681558529  1.0000
  H   H45       1.0  0.435479612720785  0.7403112237459518  0.6062303008641874  1.0000
  H   H46       1.0  0.4354796122073958  0.2596887760761082  0.10623030113287459  1.0000
  H   H47       1.0  0.9354796123418807  0.2403112238349218  0.6062303009167627  1.0000
  H   H48       1.0  0.9354796129345277  0.7596887759871381  0.1062303011875917  1.0000
  H   H49       1.0  0.4790467834939952  0.8900908966536146  0.5375034407170995  1.0000
  H   H50       1.0  0.4790467838737509  0.10990910316844536  0.03750344047468141  1.0000
  H   H51       1.0  0.9790467842211271  0.39009089674258457  0.5375034407718167  1.0000
  H   H52       1.0  0.9790467834948468  0.6099091030794753  0.037503440527256765  1.0000
  H   H53       1.0  0.666293184639337  0.059155066160864786  0.6217216007395673  1.0000
  H   H54       1.0  0.6662931841259478  0.9408449336611951  0.12172160100825445  1.0000
  H   H55       1.0  0.16629318501824136  0.5591550660718948  0.6217216006869919  1.0000
  H   H56       1.0  0.16629318450485214  0.44084493375016515  0.12172160095567909  1.0000
  H   H57       1.0  0.6164705448468009  0.908945166893322  0.6886151632682614  1.0000
  H   H58       1.0  0.6164705443334116  0.09105483292873778  0.18861516353694863  1.0000
  H   H59       1.0  0.11647054411966896  0.40894516698229216  0.6886151632135443  1.0000
  H   H60       1.0  0.11647054471231592  0.5910548328397678  0.18861516348437327  1.0000
  H   H61       1.0  0.6111168331986395  0.17252904161042024  0.6951503381475901  1.0000
  H   H62       1.0  0.6111168326852503  0.8274709582116396  0.19515033841627727  1.0000
  H   H63       1.0  0.111116833790435  0.6725290415214502  0.6951503386082618  1.0000
  H   H64       1.0  0.11111683306415457  0.32747095830060974  0.1951503383637019  1.0000
  H   H65       1.0  0.21604388311854233  0.02899736336199633  0.6488426517138914  1.0000
  H   H66       1.0  0.21604388349829806  0.9710026364600636  0.14884265147147324  1.0000
  H   H67       1.0  0.7160438825267468  0.5289973632730263  0.6488426512532197  1.0000
  H   H68       1.0  0.7160438831193937  0.4710026365490336  0.1488426515240486  1.0000
  H   H69       1.0  0.35619174695328865  0.15147363876626105  0.7107991973515746  1.0000
  H   H70       1.0  0.35619174754593563  0.8485263610557988  0.21079919762240354  1.0000
  H   H71       1.0  0.8561917476804205  0.651473638677291  0.7107991974062917  1.0000
  H   H72       1.0  0.8561917471670314  0.3485263611447689  0.21079919767497884  1.0000
  H   H73       1.0  0.36000235241719575  0.8873677848086418  0.702731798748596  1.0000
  H   H74       1.0  0.36000235279695153  0.11263221501341815  0.20273179850617784  1.0000
  H   H75       1.0  0.8600023520382915  0.3873677848976118  0.7027317988011713  1.0000
  H   H76       1.0  0.8600023524180472  0.6126322149244481  0.2027317985587532  1.0000
  C   C1        1.0  0.5938039033185608  0.7631463138266363  0.4082459077971666  1.0000
  C   C2        1.0  0.5938039040448413  0.23685368746084645  0.9082459080417266  1.0000
  C   C3        1.0  0.09380390369746505  0.2631463124501835  0.4082459077445912  1.0000
  C   C4        1.0  0.09380390331770941  0.7368536873718764  0.9082459079870094  1.0000
  C   C5        1.0  0.7123269259637868  0.8478797285471804  0.37276529231491334  1.0000
  C   C6        1.0  0.7123269255840312  0.1521202712748795  0.8727652925573316  1.0000
  C   C7        1.0  0.2123269263426911  0.34787972863615046  0.372765292262338  1.0000
  C   C8        1.0  0.2123269259629354  0.6521202711859094  0.8727652925047562  1.0000
  C   C9        1.0  0.6661056766988708  0.03905770991484382  0.3364914976469059  1.0000
  C   C10       1.0  0.666105676319115  0.960942291372639  0.8364914978893242  1.0000
  C   C11       1.0  0.1661056772906662  0.5390577098258738  0.3364914981075776  1.0000
  C   C12       1.0  0.16610567669801923  0.46094228999618614  0.8364914978367487  1.0000
  C   C13       1.0  0.48525486011147445  0.29520870305890184  0.5321566093510846  1.0000
  C   C14       1.0  0.4852548607041215  0.704791298228581  0.03215660962191361  1.0000
  C   C15       1.0  0.9852548608386065  0.7952087029699317  0.5321566094058018  1.0000
  C   C16       1.0  0.9852548603252171  0.20479129685212807  0.03215660967448895  1.0000
  C   C17       1.0  0.3948875346590211  0.23674853750611816  0.586519135809564  1.0000
  C   C18       1.0  0.39488753525166814  0.7632514623159418  0.08651913608039304  1.0000
  C   C19       1.0  0.894887535386153  0.7367485374171481  0.5865191358642813  1.0000
  C   C20       1.0  0.8948875348727638  0.2632514624049118  0.0865191361329684  1.0000
  C   C21       1.0  0.407506164853316  0.8731044617686812  0.5755180847599577  1.0000
  C   C22       1.0  0.40750616544596285  0.12689553805337883  0.07551808503078657  1.0000
  C   C23       1.0  0.9075061655804477  0.3731044618576511  0.5755180848146747  1.0000
  C   C24       1.0  0.9075061650670586  0.6268955379644088  0.07551808508336193  1.0000
  C   C25       1.0  0.5951574143382659  0.04668983020735522  0.6601336188133861  1.0000
  C   C26       1.0  0.5951574147180215  0.9533101696147047  0.1601336185709679  1.0000
  C   C27       1.0  0.09515741471717006  0.5466898301183851  0.6601336187608107  1.0000
  C   C28       1.0  0.09515741399088964  0.4533101697036747  0.16013361851625077  1.0000
  C   C29       1.0  0.3338647526297865  0.02673081574473545  0.6754491052652859  1.0000
  C   C30       1.0  0.333864751903506  0.9732691840773244  0.17544910502072594  1.0000
  C   C31       1.0  0.833864752037991  0.5267308156557654  0.6754491048046142  1.0000
  C   C32       1.0  0.8338647526306379  0.4732691841662945  0.1754491050754431  1.0000
  N   N1        1.0  0.6728481185293573  0.20995797500434854  0.3839153835054948  1.0000
  N   N2        1.0  0.6728481190427464  0.7900420248177114  0.8839153832368076  1.0000
  N   N3        1.0  0.1728481189082616  0.7099579749153786  0.3839153834529195  1.0000
  N   N4        1.0  0.1728481183156147  0.2900420249066814  0.8839153831820907  1.0000
  N   N5        1.0  0.4336763557607395  0.045186807487134516  0.6233698955757763  1.0000
  N   N6        1.0  0.43367635614049516  0.9548131923349255  0.12336989533335813  1.0000
  N   N7        1.0  0.9336763564878713  0.5451868073981645  0.6233698956304933  1.0000
  N   N8        1.0  0.9336763557615909  0.45481319242389545  0.12336989538593346  1.0000
  O   O1        1.0  0.6405254770520296  0.6071561024690451  0.4457391233391932  1.0000
  O   O2        1.0  0.6405254764593824  0.3928438973530149  0.945739123068364  1.0000
  O   O3        1.0  0.14052547743093385  0.1071561025580151  0.4457391232866178  1.0000
  O   O4        1.0  0.14052547683828684  0.8928438972640449  0.9457391230157889  1.0000
  O   O5        1.0  0.4659741725202215  0.8351261310717826  0.40185254157795725  1.0000
  O   O6        1.0  0.46597417192757457  0.16487386875027732  0.9018525413071282  1.0000
  O   O7        1.0  0.9659741721413172  0.3351261311607526  0.4018525416305326  1.0000
  O   O8        1.0  0.9659741715486704  0.6648738686613073  0.9018525413597036  1.0000
  O   O9        1.0  0.45808847968864275  0.47282655904120235  0.5127346682037207  1.0000
  O   O10       1.0  0.45808848028128973  0.5271734407808576  0.01273466847454972  1.0000
  O   O11       1.0  0.9580884804157747  0.9728265589522322  0.5127346682584379  1.0000
  O   O12       1.0  0.9580884796894942  0.02717344086982762  0.012734668013877968  1.0000
  O   O13       1.0  0.5728107332003618  0.17825092014029276  0.510636309112145  1.0000
  O   O14       1.0  0.5728107326869727  0.8217490796817671  0.010636309380832197  1.0000
  O   O15       1.0  0.07281073247322997  0.6782509200513227  0.5106363090574279  1.0000
  O   O16       1.0  0.07281073306587695  0.3217490797707372  0.010636309328256842  1.0000
  Br  Br1       1.0  0.49743517576086826  0.4679989519048833  0.24772878529047856  1.0000
  Br  Br2       1.0  0.4974351753811126  0.5320010479171766  0.7477287855328968  1.0000
  Br  Br3       1.0  0.9974351753819639  0.9679989518159132  0.24772878534305393  1.0000
  Br  Br4       1.0  0.9974351747893171  0.0320010480061467  0.7477287850722251  1.0000
