data_image0
_chemical_formula_structural       H76C28N12O28S4
_chemical_formula_sum              "H76 C28 N12 O28 S4"
_cell_length_a       20.561232744216884
_cell_length_b       5.098457935127452
_cell_length_c       11.864237687448504
_cell_angle_alpha    90.0
_cell_angle_beta     90.0
_cell_angle_gamma    90.0

_space_group_name_H-M_alt    "P 1"
_space_group_IT_number       1

loop_
  _space_group_symop_operation_xyz
  'x, y, z'

loop_
  _atom_site_type_symbol
  _atom_site_label
  _atom_site_symmetry_multiplicity
  _atom_site_fract_x
  _atom_site_fract_y
  _atom_site_fract_z
  _atom_site_occupancy
  H   H1        1.0  0.43768936094219396  0.7997921551740849  0.7938372146710989  1.0000
  H   H2        1.0  0.562310638852717  0.20020784382022822  0.2938372149850046  1.0000
  H   H3        1.0  0.9376893608396494  0.7002078442980735  0.7938372146710989  1.0000
  H   H4        1.0  0.06231063895526155  0.2997921546962397  0.2938372149850046  1.0000
  H   H5        1.0  0.39216136358691406  0.9814865697965022  0.8794885701791778  1.0000
  H   H6        1.0  0.607838636694349  0.01851342919781105  0.37948857049308354  1.0000
  H   H7        1.0  0.8921613634843696  0.5185134296756563  0.8794885701791778  1.0000
  H   H8        1.0  0.10783863631054141  0.48148657128003425  0.37948857049308354  1.0000
  H   H9        1.0  0.3888235744157223  0.802674758146788  0.37974284725990787  1.0000
  H   H10       1.0  0.6111764258655408  0.19732524280890246  0.8797428477888712  1.0000
  H   H11       1.0  0.8888235743131777  0.6973252432867477  0.37974284725990787  1.0000
  H   H12       1.0  0.11117642548173315  0.3026747576689428  0.8797428477888712  1.0000
  H   H13       1.0  0.5847334145556803  0.5836210846222499  0.0066818865306337944  1.0000
  H   H14       1.0  0.4152665852392306  0.41637891437206326  0.506681886216728  1.0000
  H   H15       1.0  0.08473341465822486  0.9163789148499085  0.0066818865306337944  1.0000
  H   H16       1.0  0.915266585136686  0.08362108414440461  0.506681886216728  1.0000
  H   H17       1.0  0.551617908376144  0.7857777510328426  0.9063181422415069  1.0000
  H   H18       1.0  0.44838209190511913  0.21422224796147052  0.40631814171254343  1.0000
  H   H19       1.0  0.05161790847868848  0.7142222484393158  0.9063181422415069  1.0000
  H   H20       1.0  0.9483820918025745  0.2857777505549974  0.40631814171254343  1.0000
  H   H21       1.0  0.5069106541256153  0.5412067286048957  0.9567138647271194  1.0000
  H   H22       1.0  0.4930893456692957  0.45879327235079476  0.45671386504102507  1.0000
  H   H23       1.0  0.006910654228159793  0.9587932708672626  0.9567138647271194  1.0000
  H   H24       1.0  0.9930893460531033  0.041206728127050465  0.45671386504102507  1.0000
  H   H25       1.0  0.45708302205972373  0.5268824091872885  0.13408231290603134  1.0000
  H   H26       1.0  0.5429169777351872  0.4731175917684021  0.6340823134349948  1.0000
  H   H27       1.0  0.9570830219571792  0.97311759028487  0.13408231290603134  1.0000
  H   H28       1.0  0.042916977837731726  0.026882408709443195  0.6340823134349948  1.0000
  H   H29       1.0  0.5315807177502133  0.5767293262813779  0.20554649984633366  1.0000
  H   H30       1.0  0.4684192825310497  0.4232706746743128  0.7055465003752972  1.0000
  H   H31       1.0  0.03158071736640572  0.9232706751521581  0.20554649984633366  1.0000
  H   H32       1.0  0.9684192824285052  0.07672932580353253  0.7055465003752972  1.0000
  H   H33       1.0  0.4755542953887425  0.9683598262101931  0.033476606796253035  1.0000
  H   H34       1.0  0.5244457044061684  0.03164017474549732  0.5334766064823473  1.0000
  H   H35       1.0  0.975554295286198  0.5316401752233425  0.033476606796253035  1.0000
  H   H36       1.0  0.024445704508712997  0.46835982573234797  0.5334766064823473  1.0000
  H   H37       1.0  0.553330279926916  0.9834114067030469  0.09781325278300033  1.0000
  H   H38       1.0  0.4466697198679949  0.016588594252643522  0.5978132533119638  1.0000
  H   H39       1.0  0.05333028002946054  0.5165885927691114  0.09781325278300033  1.0000
  H   H40       1.0  0.9466697197654503  0.4834114062252018  0.5978132533119638  1.0000
  H   H41       1.0  0.2922116263525052  0.6393115960695905  0.7395857484617749  1.0000
  H   H42       1.0  0.7077883734424057  0.36068840488610004  0.2395857487756807  1.0000
  H   H43       1.0  0.7922116262499607  0.860688403402568  0.7395857484617749  1.0000
  H   H44       1.0  0.20778837354495022  0.13931159559174522  0.2395857487756807  1.0000
  H   H45       1.0  0.3120947396407873  0.09397977704174627  0.6664116514088776  1.0000
  H   H46       1.0  0.6879052601541236  0.9060202219525669  0.1664116508799141  1.0000
  H   H47       1.0  0.8120947395382428  0.40602022343609906  0.6664116514088776  1.0000
  H   H48       1.0  0.18790526025666812  0.5939797775195915  0.1664116508799141  1.0000
  H   H49       1.0  0.24588078997461651  0.030637067518748735  0.5725724820218868  1.0000
  H   H50       1.0  0.7541192098202943  0.9693629334369417  0.07257248149292332  1.0000
  H   H51       1.0  0.745880789872072  0.4693629329590965  0.5725724820218868  1.0000
  H   H52       1.0  0.25411920992283893  0.5306370660352167  0.07257248149292332  1.0000
  H   H53       1.0  0.16605013972035734  0.705241201506572  0.6230017313138967  1.0000
  H   H54       1.0  0.8339498605609058  0.29475879748774125  0.12300173162780241  1.0000
  H   H55       1.0  0.6660501396178128  0.7947587979655866  0.6230017313138967  1.0000
  H   H56       1.0  0.3339498606634503  0.20524120102872664  0.12300173162780241  1.0000
  H   H57       1.0  0.18978814590275803  0.44456683939343694  0.7161893173287691  1.0000
  H   H58       1.0  0.8102118543785051  0.5554331615622535  0.21618931764267493  1.0000
  H   H59       1.0  0.6897881458002134  0.05543316108440835  0.7161893173287691  1.0000
  H   H60       1.0  0.3102118539946974  0.9445668398712821  0.21618931764267493  1.0000
  H   H61       1.0  0.22905486400491482  0.48095937461896515  0.5825849542202204  1.0000
  H   H62       1.0  0.7709451362763482  0.5190406263367253  0.08258495369125694  1.0000
  H   H63       1.0  0.7290548639023702  0.01904062585888006  0.5825849542202204  1.0000
  H   H64       1.0  0.27094513589254066  0.9809593731354331  0.08258495369125694  1.0000
  H   H65       1.0  0.26357204441082294  0.03783275697363935  0.8378851445733181  1.0000
  H   H66       1.0  0.7364279553840879  0.9621672420206738  0.33788514404435477  1.0000
  H   H67       1.0  0.7635720443082784  0.46216724154282857  0.8378851445733181  1.0000
  H   H68       1.0  0.23642795548663248  0.5378327574514846  0.33788514404435477  1.0000
  H   H69       1.0  0.21009472212773825  0.7633704346533373  0.8651742143415779  1.0000
  H   H70       1.0  0.7899052781535248  0.2366295643409758  0.3651742146554837  1.0000
  H   H71       1.0  0.7100947220251936  0.736629564818821  0.8651742143415779  1.0000
  H   H72       1.0  0.2899052777697172  0.26337043613686945  0.3651742146554837  1.0000
  H   H73       1.0  0.18508537339865333  0.01836325633971511  0.7713999736942411  1.0000
  H   H74       1.0  0.8149146268826096  0.9816367426545981  0.2713999740081468  1.0000
  H   H75       1.0  0.6850853732961087  0.4816367441381301  0.7713999736942411  1.0000
  H   H76       1.0  0.3149146264988021  0.5183632568175603  0.2713999740081468  1.0000
  C   C1        1.0  0.45639070997041065  0.8307292467431375  0.25623232356648573  1.0000
  C   C2        1.0  0.5436092903108524  0.1692707542125531  0.7562323232525799  1.0000
  C   C3        1.0  0.9563907098678662  0.6692707546903984  0.25623232356648573  1.0000
  C   C4        1.0  0.04360929041339691  0.33072924626529215  0.7562323232525799  1.0000
  C   C5        1.0  0.490440012787476  0.6779490139921286  0.1652954089140261  1.0000
  C   C6        1.0  0.5095599870074349  0.3220509850021846  0.6652954086001204  1.0000
  C   C7        1.0  0.9904400131712836  0.8220509854800298  0.1652954089140261  1.0000
  C   C8        1.0  0.009559987109979412  0.1779490154756607  0.6652954086001204  1.0000
  C   C9        1.0  0.5149023130910154  0.8499657161321015  0.06980060091649225  1.0000
  C   C10       1.0  0.48509768670389547  0.15003428482358908  0.5698006006025865  1.0000
  C   C11       1.0  0.014902313193559943  0.650034283340057  0.06980060091649225  1.0000
  C   C12       1.0  0.985097686601351  0.3499657156542562  0.5698006006025865  1.0000
  C   C13       1.0  0.33241295719111896  0.7970567574955217  0.5432109571454481  1.0000
  C   C14       1.0  0.667587042603792  0.2029432434601688  0.04321095745935384  1.0000
  C   C15       1.0  0.8324129575749265  0.7029432439380141  0.5432109571454481  1.0000
  C   C16       1.0  0.1675870427063365  0.2970567570176765  0.04321095745935384  1.0000
  C   C17       1.0  0.2853869776679818  0.9400177231981405  0.6211146029041476  1.0000
  C   C18       1.0  0.7146130221269291  0.059982277757550065  0.12111460237518415  1.0000
  C   C19       1.0  0.7853869775654372  0.559982276274018  0.6211146029041476  1.0000
  C   C20       1.0  0.21461302222947368  0.4400177227202952  0.12111460237518415  1.0000
  C   C21       1.0  0.2065641225327107  0.5847446929902881  0.6528784953621253  1.0000
  C   C22       1.0  0.7934358777485524  0.41525530796540244  0.15287849567603098  1.0000
  C   C23       1.0  0.7065641224301661  0.9152553064818704  0.6528784953621253  1.0000
  C   C24       1.0  0.2934358778510969  0.0847446925124428  0.15287849567603098  1.0000
  C   C25       1.0  0.22674313004463612  0.9063964494363289  0.8025719343159721  1.0000
  C   C26       1.0  0.7732568697502747  0.09360355151936152  0.3025719346298777  1.0000
  C   C27       1.0  0.7267431299420916  0.5936035519972067  0.8025719343159721  1.0000
  C   C28       1.0  0.27325686985281933  0.40639644895848376  0.3025719346298777  1.0000
  N   N1        1.0  0.3932364455275247  0.8129777381200233  0.8325126510613724  1.0000
  N   N2        1.0  0.6067635547537384  0.1870222628356673  0.3325126505324089  1.0000
  N   N3        1.0  0.89323644542498  0.6870222613521353  0.8325126510613724  1.0000
  N   N4        1.0  0.10676355485628293  0.31297773764217796  0.3325126505324089  1.0000
  N   N5        1.0  0.5419481968139361  0.6797391003508134  0.97973504714063  1.0000
  N   N6        1.0  0.45805180346732693  0.32026089864349977  0.47973504745453577  1.0000
  N   N7        1.0  0.04194819691648066  0.820260899121345  0.97973504714063  1.0000
  N   N8        1.0  0.9580518033647824  0.17973909987296813  0.47973504745453577  1.0000
  N   N9        1.0  0.25580021905443984  0.7602197898496751  0.7059624259602355  1.0000
  N   N10       1.0  0.7441997807404711  0.2397802111060154  0.2059624262741412  1.0000
  N   N11       1.0  0.7558002189518952  0.7397802115838608  0.7059624259602355  1.0000
  N   N12       1.0  0.2441997808430156  0.2602197893718298  0.2059624262741412  1.0000
  O   O1        1.0  0.32294762442527397  0.41165579998995  0.8456435402178508  1.0000
  O   O2        1.0  0.6770523753696369  0.5883442009657405  0.34564353968888734  1.0000
  O   O3        1.0  0.8229476248090816  0.08834420048789525  0.8456435402178508  1.0000
  O   O4        1.0  0.17705237547218144  0.9116558004677954  0.34564353968888734  1.0000
  O   O5        1.0  0.43351053124511907  0.37969296297658034  0.9148960199510596  1.0000
  O   O6        1.0  0.5664894685497918  0.6203070379791101  0.4148960202649653  1.0000
  O   O7        1.0  0.9335105311425747  0.12030703750126491  0.9148960199510596  1.0000
  O   O8        1.0  0.06648946865233633  0.8796929634544256  0.4148960202649653  1.0000
  O   O9        1.0  0.3532650230829653  0.6474303999366984  0.018314033798384578  1.0000
  O   O10       1.0  0.6467349767119456  0.35256959905761476  0.5183140334844788  1.0000
  O   O11       1.0  0.853265023466773  0.85256959953546  0.018314033798384578  1.0000
  O   O12       1.0  0.14673497681449013  0.14743039945885317  0.5183140334844788  1.0000
  O   O13       1.0  0.4146429917923053  0.6915454015434299  0.3146619351658369  1.0000
  O   O14       1.0  0.5853570084889578  0.30845459941226067  0.8146619348519312  1.0000
  O   O15       1.0  0.9146429916897608  0.808454599890106  0.3146619351658369  1.0000
  O   O16       1.0  0.08535700810515019  0.1915454010655846  0.8146619348519312  1.0000
  O   O17       1.0  0.4676320009414012  0.06736160901392524  0.273853062926855  1.0000
  O   O18       1.0  0.5323679993398618  0.9326383919417653  0.7738530626129492  1.0000
  O   O19       1.0  0.9676320008388567  0.4326383914639201  0.273853062926855  1.0000
  O   O20       1.0  0.032367999442406384  0.5673616075303931  0.7738530626129492  1.0000
  O   O21       1.0  0.35060090558177087  0.9320063616218134  0.45757849792096583  1.0000
  O   O22       1.0  0.64939909421314  0.06799363933387714  0.9575784984499293  1.0000
  O   O23       1.0  0.8506009059655786  0.5679936398117225  0.45757849792096583  1.0000
  O   O24       1.0  0.14939909431568454  0.4320063611439682  0.9575784984499293  1.0000
  O   O25       1.0  0.3506758081918993  0.5689858535485752  0.5684258245377698  1.0000
  O   O26       1.0  0.6493241916030116  0.43101414544573785  0.06842582400880644  1.0000
  O   O27       1.0  0.8506758080893547  0.9310141459235831  0.5684258245377698  1.0000
  O   O28       1.0  0.14932419170555614  0.06898585307073002  0.06842582400880644  1.0000
  S   S1        1.0  0.3745520862393855  0.547396066714873  0.9089740221075462  1.0000
  S   S2        1.0  0.6254479140418775  0.45260393424081763  0.408974022421452  1.0000
  S   S3        1.0  0.8745520861368409  0.9526039347186629  0.9089740221075462  1.0000
  S   S4        1.0  0.1254479141444221  0.04739606623702766  0.408974022421452  1.0000
