data_image0
_chemical_formula_structural       H68C28N8O32Cl4
_chemical_formula_sum              "H68 C28 N8 O32 Cl4"
_cell_length_a       16.15246675893066
_cell_length_b       9.462094720177266
_cell_length_c       8.180710554584909
_cell_angle_alpha    90.0
_cell_angle_beta     90.0
_cell_angle_gamma    90.0

_space_group_name_H-M_alt    "P 1"
_space_group_IT_number       1

loop_
  _space_group_symop_operation_xyz
  'x, y, z'

loop_
  _atom_site_type_symbol
  _atom_site_label
  _atom_site_symmetry_multiplicity
  _atom_site_fract_x
  _atom_site_fract_y
  _atom_site_fract_z
  _atom_site_occupancy
  H   H1        1.0  0.33060770715082605  0.44189851546124304  0.7546799680548362  1.0000
  H   H2        1.0  0.6693922929153768  0.5581014845200225  0.2546799677238691  1.0000
  H   H3        1.0  0.8306077071839275  0.05810148452938977  0.7546799680548362  1.0000
  H   H4        1.0  0.1693922928822754  0.9418985154518759  0.2546799677238691  1.0000
  H   H5        1.0  0.23783237862885553  0.27444628454864484  0.4045747820945775  1.0000
  H   H6        1.0  0.7621676214373474  0.7255537154326208  0.9045747812031568  1.0000
  H   H7        1.0  0.737832378661957  0.225553715441988  0.4045747820945775  1.0000
  H   H8        1.0  0.26216762140424593  0.7744462845392777  0.9045747812031568  1.0000
  H   H9        1.0  0.15782424740732096  0.3836720469790423  0.4829503309814227  1.0000
  H   H10       1.0  0.8421757526588819  0.6163279530022233  0.9829503313123898  1.0000
  H   H11       1.0  0.6578242474404223  0.11632795301159053  0.4829503309814227  1.0000
  H   H12       1.0  0.3421757526257805  0.8836720469696752  0.9829503313123898  1.0000
  H   H13       1.0  0.26729177310412405  0.4964865993131793  0.22448257247908224  1.0000
  H   H14       1.0  0.7327082269620787  0.5035134006680863  0.7244825715876615  1.0000
  H   H15       1.0  0.7672917725181251  0.0035134006774535003  0.22448257247908224  1.0000
  H   H16       1.0  0.23270822692897739  0.9964865993038121  0.7244825715876615  1.0000
  H   H17       1.0  0.1538295201026308  0.6317381665238724  0.15129428571535627  1.0000
  H   H18       1.0  0.846170479963572  0.3682618334573932  0.6512942860463233  1.0000
  H   H19       1.0  0.6538295201357323  0.868261833448026  0.15129428571535627  1.0000
  H   H20       1.0  0.3461704799304706  0.13173816653323964  0.6512942860463233  1.0000
  H   H21       1.0  0.1747025201856423  0.651660370388311  0.36500324392072436  1.0000
  H   H22       1.0  0.8252974798805605  0.34833962959295456  0.8650032442516914  1.0000
  H   H23       1.0  0.6747025202187438  0.8483396295835873  0.36500324392072436  1.0000
  H   H24       1.0  0.3252974798474591  0.15166037039767824  0.8650032442516914  1.0000
  H   H25       1.0  0.09069749728412296  0.540699091617649  0.30005829244554555  1.0000
  H   H26       1.0  0.9093025027820799  0.4593009083636167  0.8000582927765125  1.0000
  H   H27       1.0  0.5906974973172244  0.9593009083542496  0.30005829244554555  1.0000
  H   H28       1.0  0.40930250274897845  0.04069909162701612  0.8000582927765125  1.0000
  H   H29       1.0  0.18251523213134108  0.4098607945374008  0.016533626156006072  1.0000
  H   H30       1.0  0.8174847679348618  0.5901392054438648  0.5165336264869731  1.0000
  H   H31       1.0  0.6825152321644425  0.09013920545323197  0.016533626156006072  1.0000
  H   H32       1.0  0.31748476790176033  0.9098607945280337  0.5165336264869731  1.0000
  H   H33       1.0  0.1236471951812406  0.30999397456307104  0.16361960872088538  1.0000
  H   H34       1.0  0.8763528048849623  0.6900060254181947  0.6636196078294647  1.0000
  H   H35       1.0  0.6236471952143421  0.1900060254275618  0.16361960872088538  1.0000
  H   H36       1.0  0.37635280485186084  0.8099939745537038  0.6636196078294647  1.0000
  H   H37       1.0  0.23057962202217638  0.26906193451763544  0.12852659716834955  1.0000
  H   H38       1.0  0.7694203780440264  0.7309380654636302  0.6285265962769289  1.0000
  H   H39       1.0  0.7305796214361774  0.23093806547299733  0.12852659716834955  1.0000
  H   H40       1.0  0.26942037801092505  0.7690619345082683  0.6285265962769289  1.0000
  H   H41       1.0  0.49052009258086426  0.3934866897982446  0.8220415103466794  1.0000
  H   H42       1.0  0.5094799074853386  0.606513310183021  0.32204151001571235  1.0000
  H   H43       1.0  0.9905200926139657  0.10651331019238822  0.8220415103466794  1.0000
  H   H44       1.0  0.009479907452237174  0.8934866897888775  0.32204151001571235  1.0000
  H   H45       1.0  0.5933273253573603  0.42230840191009406  0.8188004459155293  1.0000
  H   H46       1.0  0.4066726747088425  0.5776915980711715  0.3188004455845622  1.0000
  H   H47       1.0  0.09332732532425893  0.07769159808053876  0.8188004459155293  1.0000
  H   H48       1.0  0.9066726747419439  0.9223084019007268  0.3188004455845622  1.0000
  H   H49       1.0  0.5007331171585989  0.5376959151709575  0.6141675367287133  1.0000
  H   H50       1.0  0.499266882907604  0.46230408481030816  0.11416753639774631  1.0000
  H   H51       1.0  0.0007331171254974278  0.962304084800941  0.6141675367287133  1.0000
  H   H52       1.0  0.9992668829407053  0.037695915180324654  0.11416753639774631  1.0000
  H   H53       1.0  0.49056921448972446  0.36819118419633956  0.523831602573725  1.0000
  H   H54       1.0  0.5094307855764784  0.631808815784926  0.02383160224275803  1.0000
  H   H55       1.0  0.9905692145228259  0.13180881579429324  0.523831602573725  1.0000
  H   H56       1.0  0.00943078554337695  0.8681911841869725  0.02383160224275803  1.0000
  H   H57       1.0  0.5244710140211944  0.16516683210403557  0.6656450895879794  1.0000
  H   H58       1.0  0.4755289854259079  0.83483316787723  0.1656450892570123  1.0000
  H   H59       1.0  0.024471014607193524  0.3348331678865973  0.6656450895879794  1.0000
  H   H60       1.0  0.9755289854590093  0.6651668320946684  0.1656450892570123  1.0000
  H   H61       1.0  0.5531968319984059  0.17342883880676868  0.8764592149005338  1.0000
  H   H62       1.0  0.4468031674486965  0.826571161174497  0.37645921579195446  1.0000
  H   H63       1.0  0.05319683196530444  0.32657116118386414  0.8764592149005338  1.0000
  H   H64       1.0  0.9468031674817979  0.6734288387974015  0.37645921579195446  1.0000
  H   H65       1.0  0.6295826613837425  0.20282137483866222  0.7214218484594039  1.0000
  H   H66       1.0  0.37041733868246024  0.7971786251426034  0.22142184812843682  1.0000
  H   H67       1.0  0.12958266135064114  0.29717862515197063  0.7214218484594039  1.0000
  H   H68       1.0  0.8704173387155617  0.7028213748292951  0.22142184812843682  1.0000
  C   C1        1.0  0.28195996301815085  0.4568022005511085  0.531362536419743  1.0000
  C   C2        1.0  0.718040037048052  0.5431977994301572  0.031362536088776004  1.0000
  C   C3        1.0  0.7819599630512523  0.04319779943952437  0.531362536419743  1.0000
  C   C4        1.0  0.21804003701495056  0.9568022005417413  0.031362536088776004  1.0000
  C   C5        1.0  0.21851702236430845  0.3844706227937492  0.4232998218057243  1.0000
  C   C6        1.0  0.7814829777018943  0.6155293771875164  0.9232998221366913  1.0000
  C   C7        1.0  0.7185170223974099  0.11552937719688357  0.4232998218057243  1.0000
  C   C8        1.0  0.28148297766879293  0.884470622784382  0.9232998221366913  1.0000
  C   C9        1.0  0.15275064711932224  0.5793358354689249  0.2703030837291615  1.0000
  C   C10       1.0  0.8472493529468806  0.42066416451234073  0.7703030840601285  1.0000
  C   C11       1.0  0.6527506471524237  0.9206641645029735  0.2703030837291615  1.0000
  C   C12       1.0  0.3472493529137792  0.07933583547829211  0.7703030840601285  1.0000
  C   C13       1.0  0.18446908849712193  0.35337460666821124  0.133061214271898  1.0000
  C   C14       1.0  0.815530911569081  0.6466253933130544  0.633061214602865  1.0000
  C   C15       1.0  0.6844690885302234  0.14662539332242155  0.133061214271898  1.0000
  C   C16       1.0  0.3155309115359795  0.8533746066588441  0.633061214602865  1.0000
  C   C17       1.0  0.5322071890503683  0.43635668761542995  0.5946738645182201  1.0000
  C   C18       1.0  0.4677928110158346  0.5636433123658358  0.09467386418725314  1.0000
  C   C19       1.0  0.032207189017266886  0.06364331237520292  0.5946738645182201  1.0000
  C   C20       1.0  0.967792811048936  0.9363566876060627  0.09467386418725314  1.0000
  C   C21       1.0  0.6118646147057163  0.46237857994281795  0.50088827891649  1.0000
  C   C22       1.0  0.3881353853604865  0.5376214200384477  0.0008882785855230293  1.0000
  C   C23       1.0  0.11186461467261495  0.037621420047814845  0.50088827891649  1.0000
  C   C24       1.0  0.8881353853935879  0.9623785799334508  0.0008882785855230293  1.0000
  C   C25       1.0  0.5646755573700267  0.21699439402372991  0.7550729253631959  1.0000
  C   C26       1.0  0.43532444269617615  0.7830056059575358  0.2550729250322289  1.0000
  C   C27       1.0  0.0646755573369253  0.28300560596690294  0.7550729253631959  1.0000
  C   C28       1.0  0.9353244427292776  0.7169943940143627  0.2550729250322289  1.0000
  N   N1        1.0  0.21001022262587046  0.45577402864121896  0.2621439721758758  1.0000
  N   N2        1.0  0.7899897774403324  0.5442259713400467  0.7621439725068427  1.0000
  N   N3        1.0  0.7100102226589718  0.04422597134941387  0.2621439721758758  1.0000
  N   N4        1.0  0.28998977740723103  0.9557740286318517  0.7621439725068427  1.0000
  N   N5        1.0  0.5456080251722146  0.37098353417606006  0.7576079386559442  1.0000
  N   N6        1.0  0.45439197489398825  0.6290164658052056  0.25760793832497725  1.0000
  N   N7        1.0  0.045608025139113204  0.12901646581457277  0.7576079386559442  1.0000
  N   N8        1.0  0.9543919749270897  0.8709835341666928  0.25760793832497725  1.0000
  O   O1        1.0  0.481891935527209  0.12460025024753849  0.37445674548198626  1.0000
  O   O2        1.0  0.5181080645389939  0.875399749733727  0.8744567458129533  1.0000
  O   O3        1.0  0.9818919355603104  0.3753997497430943  0.37445674548198626  1.0000
  O   O4        1.0  0.018108064505892453  0.6246002502381713  0.8744567458129533  1.0000
  O   O5        1.0  0.4745311037871119  0.2090555388102204  0.09945489264914871  1.0000
  O   O6        1.0  0.525468896279091  0.7909444611710452  0.599454891757728  1.0000
  O   O7        1.0  0.9745311038202132  0.2909444611804124  0.09945489264914871  1.0000
  O   O8        1.0  0.025468896245989546  0.7090555388008531  0.599454891757728  1.0000
  O   O9        1.0  0.3965057663071148  0.3227868574901331  0.30992969046912444  1.0000
  O   O10       1.0  0.6034942337590881  0.6772131424911325  0.8099296908000915  1.0000
  O   O11       1.0  0.8965057663402162  0.17721314250049972  0.30992969046912444  1.0000
  O   O12       1.0  0.10349423372598666  0.8227868574807659  0.8099296908000915  1.0000
  O   O13       1.0  0.35782948674414367  0.09283413303048647  0.21890245206100736  1.0000
  O   O14       1.0  0.6421705133220592  0.907165866950779  0.7189024523919744  1.0000
  O   O15       1.0  0.8578294867772451  0.40716586696014634  0.21890245206100736  1.0000
  O   O16       1.0  0.14217051328895777  0.5928341330211193  0.7189024523919744  1.0000
  O   O17       1.0  0.28502195353255044  0.39776281059353946  0.6760762006058572  1.0000
  O   O18       1.0  0.7149780465336525  0.6022371893877262  0.17607620149727785  1.0000
  O   O19       1.0  0.7850219535656519  0.10223718939709334  0.6760762006058572  1.0000
  O   O20       1.0  0.21497804650055102  0.8977628105841723  0.17607620149727785  1.0000
  O   O21       1.0  0.3250639557637204  0.5566332969346272  0.4833869238636875  1.0000
  O   O22       1.0  0.6749360443024826  0.4433667030466385  0.9833869241946545  1.0000
  O   O23       1.0  0.8250639557968218  0.9433667030372713  0.4833869238636875  1.0000
  O   O24       1.0  0.17493604426938106  0.05663329694399433  0.9833869241946545  1.0000
  O   O25       1.0  0.600817082297  0.5230573088056425  0.36186766910373935  1.0000
  O   O26       1.0  0.3991829177692028  0.4769426911756231  0.8618676694347064  1.0000
  O   O27       1.0  0.1008170822638986  0.9769426911662559  0.36186766910373935  1.0000
  O   O28       1.0  0.8991829178023043  0.023057308815009697  0.8618676694347064  1.0000
  O   O29       1.0  0.6800336694038915  0.42535708202301725  0.5593986206290122  1.0000
  O   O30       1.0  0.31996633066231134  0.5746429179582483  0.05939862029804522  1.0000
  O   O31       1.0  0.1800336693707901  0.07464291796761556  0.5593986206290122  1.0000
  O   O32       1.0  0.8199663306954128  0.9253570820136502  0.05939862029804522  1.0000
  Cl  Cl1       1.0  0.4276721248276586  0.18639833590325314  0.2500826152385252  1.0000
  Cl  Cl2       1.0  0.5723278752385442  0.8136016640780125  0.7500826143471044  1.0000
  Cl  Cl3       1.0  0.9276721248607601  0.31360166408737966  0.2500826152385252  1.0000
  Cl  Cl4       1.0  0.0723278752054428  0.6863983358938859  0.7500826143471044  1.0000
