data_image0
_chemical_formula_structural       H76C32N8O16I4
_chemical_formula_sum              "H76 C32 N8 O16 I4"
_cell_length_a       9.145079664077638
_cell_length_b       6.9603119875174615
_cell_length_c       20.399213754652383
_cell_angle_alpha    90.0
_cell_angle_beta     101.48557825318785
_cell_angle_gamma    90.0

_space_group_name_H-M_alt    "P 1"
_space_group_IT_number       1

loop_
  _space_group_symop_operation_xyz
  'x, y, z'

loop_
  _atom_site_type_symbol
  _atom_site_label
  _atom_site_symmetry_multiplicity
  _atom_site_fract_x
  _atom_site_fract_y
  _atom_site_fract_z
  _atom_site_occupancy
  H   H1        1.0  0.5645169780954371  0.5361024558513928  0.47159408893422045  1.0000
  H   H2        1.0  0.5645169781775501  0.46389754450527776  0.9715940890584909  1.0000
  H   H3        1.0  0.06451697890915288  0.03610245639141611  0.4715940890492934  1.0000
  H   H4        1.0  0.06451697899126588  0.9638975439652544  0.9715940891735637  1.0000
  H   H5        1.0  0.73183608106318  0.7370567841212203  0.33946501362512405  1.0000
  H   H6        1.0  0.7318360809272771  0.26294321479873295  0.8394650132491658  1.0000
  H   H7        1.0  0.2318360805645569  0.2370567846612437  0.3394650132380618  1.0000
  H   H8        1.0  0.23183608064666994  0.7629432156954268  0.839465013362332  1.0000
  H   H9        1.0  0.8162522716011454  0.8574459177552819  0.4133445616891795  1.0000
  H   H10       1.0  0.8162522716832584  0.14255408116467147  0.9133445618134499  1.0000
  H   H11       1.0  0.3162522713205382  0.3574459182953052  0.4133445618023458  1.0000
  H   H12       1.0  0.3162522711846354  0.6425540820613653  0.9133445614263875  1.0000
  H   H13       1.0  0.7287115286290862  0.060023726055563095  0.304928403525944  1.0000
  H   H14       1.0  0.7287115284931834  0.9399762743011075  0.8049284031499858  1.0000
  H   H15       1.0  0.22871152922478635  0.5600237255155398  0.3049284031407884  1.0000
  H   H16       1.0  0.22871152930689936  0.4399762734044136  0.8049284032650589  1.0000
  H   H17       1.0  0.5429632355753149  0.020883068210257483  0.31742931950998826  1.0000
  H   H18       1.0  0.542963235439412  0.9791169307096959  0.8174293191340299  1.0000
  H   H19       1.0  0.042963235076691836  0.5208830691069514  0.31742931912292593  1.0000
  H   H20       1.0  0.042963235158804916  0.47911693124971916  0.8174293192471964  1.0000
  H   H21       1.0  0.6250689572920439  0.3134235051406203  0.3622724754973062  1.0000
  H   H22       1.0  0.6250689573741569  0.6865764952160504  0.8622724756215765  1.0000
  H   H23       1.0  0.12506895701143664  0.8134235060373142  0.36227247561047243  1.0000
  H   H24       1.0  0.1250689570935497  0.1865764943193564  0.8622724757347429  1.0000
  H   H25       1.0  0.7900016240652734  0.23264643638159008  0.40396224153992205  1.0000
  H   H26       1.0  0.7900016241473864  0.7673535639750805  0.9039622416641924  1.0000
  H   H27       1.0  0.29000162378466604  0.732646437278284  0.4039622416530883  1.0000
  H   H28       1.0  0.2900016238667791  0.2673535630783866  0.9039622417773586  1.0000
  H   H29       1.0  0.631799257270022  0.17609365674959626  0.4315939751982382  1.0000
  H   H30       1.0  0.6317992573521349  0.8239063421703571  0.9315939753225085  1.0000
  H   H31       1.0  0.13179925808373774  0.6760936576462901  0.43159397531331106  1.0000
  H   H32       1.0  0.1317992581658508  0.32390634271038043  0.9315939754375815  1.0000
  H   H33       1.0  0.4113323384250767  0.3377163012542479  0.620333331956291  1.0000
  H   H34       1.0  0.4113323383429637  0.6622836991024227  0.12033333183202073  1.0000
  H   H35       1.0  0.911332338705684  0.8377163007142245  0.6203333318431249  1.0000
  H   H36       1.0  0.9113323388415867  0.1622836982057288  0.12033333221908304  1.0000
  H   H37       1.0  0.2839881802899299  0.2188880401815721  0.5549022986134761  1.0000
  H   H38       1.0  0.2839881802078169  0.7811119587383812  0.05490229848920572  1.0000
  H   H39       1.0  0.7839881805705372  0.7188880410782659  0.5549022985003099  1.0000
  H   H40       1.0  0.7839881807064399  0.2811119592784046  0.05490229887626802  1.0000
  H   H41       1.0  0.29687291052358067  0.8658887433219215  0.5445967680638311  1.0000
  H   H42       1.0  0.29687291044146774  0.13411125703474916  0.04459676793956078  1.0000
  H   H43       1.0  0.796872909709865  0.3658887424252275  0.5445967679487582  1.0000
  H   H44       1.0  0.7968729096277519  0.6341112579314431  0.044596767824487855  1.0000
  H   H45       1.0  0.43927515526318756  0.7386770505719521  0.6010378874844905  1.0000
  H   H46       1.0  0.4392751551810745  0.2613229483480013  0.10103788736022014  1.0000
  H   H47       1.0  0.9392751555437948  0.23867705111197537  0.6010378873713242  1.0000
  H   H48       1.0  0.9392751554616817  0.7613229492446951  0.1010378872470539  1.0000
  H   H49       1.0  0.4871049281586552  0.8862431556318976  0.5353025274514162  1.0000
  H   H50       1.0  0.48710492807654215  0.11375684328805578  0.035302527327145845  1.0000
  H   H51       1.0  0.9871049273449395  0.38624315617192084  0.5353025273363433  1.0000
  H   H52       1.0  0.9871049274808419  0.6137568441847496  0.03530252771230148  1.0000
  H   H53       1.0  0.6684605021307055  0.04892533130852645  0.6212101608338493  1.0000
  H   H54       1.0  0.6684605020485925  0.9510746690481441  0.12121016070957893  1.0000
  H   H55       1.0  0.16846050185009828  0.5489253307685031  0.6212101609470155  1.0000
  H   H56       1.0  0.16846050176798524  0.45107466815145025  0.1212101608227452  1.0000
  H   H57       1.0  0.6116280337202721  0.9043685974549439  0.6852794063022296  1.0000
  H   H58       1.0  0.6116280336381591  0.09563140290172663  0.18527940617795932  1.0000
  H   H59       1.0  0.11162803343966482  0.4043685965582501  0.685279406415396  1.0000
  H   H60       1.0  0.11162803335755181  0.5956314037984205  0.18527940629112558  1.0000
  H   H61       1.0  0.6072519403822022  0.1630053195941102  0.6905178788406312  1.0000
  H   H62       1.0  0.6072519413944124  0.8369946807625603  0.19051787871826753  1.0000
  H   H63       1.0  0.10725194119591809  0.6630053190540868  0.6905178789557042  1.0000
  H   H64       1.0  0.10725194111380508  0.3369946798658665  0.19051787883143378  1.0000
  H   H65       1.0  0.2160156736909881  0.02180166209102984  0.637131959356567  1.0000
  H   H66       1.0  0.21601567360887514  0.9781983382656408  0.13713195923229665  1.0000
  H   H67       1.0  0.7160156728772723  0.5218016615510066  0.637131959241494  1.0000
  H   H68       1.0  0.7160156727951593  0.47819833736894685  0.1371319591172237  1.0000
  H   H69       1.0  0.3492301806681582  0.14341298519235318  0.7000607592226746  1.0000
  H   H70       1.0  0.34923018168036823  0.8565870151643175  0.20006075910031088  1.0000
  H   H71       1.0  0.8492301809487653  0.6434129846523299  0.7000607591095083  1.0000
  H   H72       1.0  0.8492301808666525  0.3565870157043407  0.20006075898523795  1.0000
  H   H73       1.0  0.354694598857521  0.8847230844024793  0.6931801315202866  1.0000
  H   H74       1.0  0.354694598775408  0.115276914517474  0.19318013139601617  1.0000
  H   H75       1.0  0.8546945991381284  0.3847230849425027  0.6931801314071203  1.0000
  H   H76       1.0  0.8546945992740311  0.6152769154141678  0.1931801317830785  1.0000
  C   C1        1.0  0.5962048102665864  0.7518032251118071  0.4114701429297365  1.0000
  C   C2        1.0  0.5962048103486995  0.24819677524486344  0.9114701430540068  1.0000
  C   C3        1.0  0.09620480998597924  0.25180322421511325  0.41147014304290275  1.0000
  C   C4        1.0  0.09620481006809226  0.7481967747048401  0.9114701431671731  1.0000
  C   C5        1.0  0.7108265070105948  0.8415154924814073  0.3770707905445252  1.0000
  C   C6        1.0  0.7108265070927079  0.1584845078752632  0.8770707906687956  1.0000
  C   C7        1.0  0.21082650672998762  0.3415154930214307  0.37707079065769145  1.0000
  C   C8        1.0  0.2108265068121006  0.6584845073352399  0.8770707907819617  1.0000
  C   C9        1.0  0.6606100810874203  0.02869804404719565  0.34217317255993573  1.0000
  C   C10       1.0  0.6606100811695333  0.9713019548727577  0.8421731726842062  1.0000
  C   C11       1.0  0.16061008080681302  0.5286980449438895  0.342173172673102  1.0000
  C   C12       1.0  0.16061008088892603  0.471301955412781  0.8421731727973724  1.0000
  C   C13       1.0  0.4950217556468939  0.2835220954950116  0.5308367540074347  1.0000
  C   C14       1.0  0.49502175556478084  0.7164779048616589  0.030836753883164293  1.0000
  C   C15       1.0  0.995021754833178  0.7835220949549883  0.5308367538923616  1.0000
  C   C16       1.0  0.9950217549690809  0.21647790540168227  0.030836754268319923  1.0000
  C   C17       1.0  0.4006089872731943  0.22579291888330133  0.5815333657088763  1.0000
  C   C18       1.0  0.40060898719108123  0.7742070814733693  0.08153336558460583  1.0000
  C   C19       1.0  0.9006089864594783  0.7257929183432781  0.5815333655938032  1.0000
  C   C20       1.0  0.9006089863773655  0.27420708201339256  0.08153336546953291  1.0000
  C   C21       1.0  0.41336258426707684  0.8690944818060605  0.5709160184940226  1.0000
  C   C22       1.0  0.41336258440297957  0.13090551855060997  0.07091601886998086  1.0000
  C   C23       1.0  0.9133625845476842  0.36909448234608394  0.5709160183808565  1.0000
  C   C24       1.0  0.913362584683587  0.6309055180105867  0.07091601875681461  1.0000
  C   C25       1.0  0.5937623972746588  0.038697786892749435  0.6567542946198018  1.0000
  C   C26       1.0  0.5937623971925459  0.9613022120272039  0.15675429449553147  1.0000
  C   C27       1.0  0.09376239677603578  0.5386977877894433  0.6567542942327396  1.0000
  C   C28       1.0  0.09376239691193854  0.4613022125672272  0.15675429460869772  1.0000
  C   C29       1.0  0.33091450330950317  0.020485130588356736  0.6657114695463926  1.0000
  C   C30       1.0  0.3309145034454059  0.9795148697683139  0.16571146992235075  1.0000
  C   C31       1.0  0.8309145038081263  0.5204851300483334  0.6657114699334549  1.0000
  C   C32       1.0  0.8309145037260132  0.47951487030833717  0.1657114698091845  1.0000
  N   N1        1.0  0.6771614151743076  0.19615310670678104  0.3886796250204065  1.0000
  N   N2        1.0  0.6771614150384049  0.8038468936498896  0.8886796246444482  1.0000
  N   N3        1.0  0.17716141467568464  0.6961531076034749  0.3886796246333442  1.0000
  N   N4        1.0  0.17716141475779773  0.3038468927531956  0.8886796247576148  1.0000
  N   N5        1.0  0.43574908096002335  0.03788289525999333  0.6177522704543542  1.0000
  N   N6        1.0  0.4357490808779103  0.9621171050966772  0.11775227033008386  1.0000
  N   N7        1.0  0.9357490801463075  0.53788289471997  0.6177522703392814  1.0000
  N   N8        1.0  0.9357490800641945  0.46211710563670055  0.11775227021501092  1.0000
  O   O1        1.0  0.6455978872230382  0.5960481035103302  0.4459121343480557  1.0000
  O   O2        1.0  0.6455978873051511  0.4039518968463404  0.945912134472326  1.0000
  O   O3        1.0  0.14559788694243087  0.09604810405035351  0.445912134461222  1.0000
  O   O4        1.0  0.14559788680652813  0.903951896306317  0.9459121340852638  1.0000
  O   O5        1.0  0.46923805232990096  0.8191561068275599  0.4071561464499858  1.0000
  O   O6        1.0  0.4692380521939983  0.1808438935291106  0.9071561460740277  1.0000
  O   O7        1.0  0.9692380526105082  0.3191561073675833  0.4071561463368196  1.0000
  O   O8        1.0  0.9692380526926212  0.6808438929890872  0.9071561464610898  1.0000
  O   O9        1.0  0.4694713043256477  0.4578660418836584  0.5118279259454155  1.0000
  O   O10       1.0  0.46947130424353467  0.542133957036295  0.011827925821145153  1.0000
  O   O11       1.0  0.9694713046062549  0.9578660427803523  0.5118279258322492  1.0000
  O   O12       1.0  0.9694713045241419  0.04213395757631824  0.011827925707978894  1.0000
  O   O13       1.0  0.5834594160586051  0.16848820887672283  0.511520245456661  1.0000
  O   O14       1.0  0.5834594159764921  0.8315117914799477  0.011520245332390572  1.0000
  O   O15       1.0  0.08345941577799774  0.6684882083366995  0.5115202455698272  1.0000
  O   O16       1.0  0.08345941569588472  0.3315117905832538  0.011520245445556833  1.0000
  I   I1        1.0  0.4982868424610607  0.47028933413766577  0.2475924553837459  1.0000
  I   I2        1.0  0.4982868423251579  0.5297106662190049  0.7475924550077877  1.0000
  I   I3        1.0  0.9982868427416679  0.9702893335976425  0.24759245527057966  1.0000
  I   I4        1.0  0.998286842823781  0.02971066675902812  0.7475924553948501  1.0000
