data_image0
_chemical_formula_structural       H20C36N4O8Br4
_chemical_formula_sum              "H20 C36 N4 O8 Br4"
_cell_length_a       12.11167846143204
_cell_length_b       3.8107362333767436
_cell_length_c       17.440143530919
_cell_angle_alpha    90.0
_cell_angle_beta     107.61525551610961
_cell_angle_gamma    90.0

_space_group_name_H-M_alt    "P 1"
_space_group_IT_number       1

loop_
  _space_group_symop_operation_xyz
  'x, y, z'

loop_
  _atom_site_type_symbol
  _atom_site_label
  _atom_site_symmetry_multiplicity
  _atom_site_fract_x
  _atom_site_fract_y
  _atom_site_fract_z
  _atom_site_occupancy
  H   H1        1.0  0.7664198273218675  0.5666119399942559  0.3706187714774769  1.0000
  H   H2        1.0  0.7335801731671884  0.06661193912523003  0.12938122849450337  1.0000
  H   H3        1.0  0.23358017284213398  0.43338805911963096  0.6293812285578032  1.0000
  H   H4        1.0  0.2664198269968132  0.9333880599886568  0.8706187715407767  1.0000
  H   H5        1.0  0.8184805275474683  0.5416594152912428  0.24268241230913992  1.0000
  H   H6        1.0  0.6815194721154417  0.041659414422217  0.2573175876616977  1.0000
  H   H7        1.0  0.18151947261653317  0.458340583822644  0.7573175877261402  1.0000
  H   H8        1.0  0.3184805269618293  0.9583405846916698  0.7426824117708423  1.0000
  H   H9        1.0  0.0012420536811124433  0.80542268266106  0.23451596581090695  1.0000
  H   H10       1.0  0.4987579465311807  0.305422684416199  0.26548403450753194  1.0000
  H   H11       1.0  0.9987579464828892  0.19457731645282683  0.7654840342243732  1.0000
  H   H12       1.0  0.5012420536328208  0.6945773173218527  0.7345159655277482  1.0000
  H   H13       1.0  0.862148043900862  0.9103537341722465  0.6461215211553901  1.0000
  H   H14       1.0  0.6378519562148479  0.41035373330322067  0.8538784785967314  1.0000
  H   H15       1.0  0.1378519562631395  0.0896462649416403  0.3538784788798901  1.0000
  H   H16       1.0  0.3621480439491536  0.5896462658106661  0.14612152143854876  1.0000
  H   H17       1.0  0.7796524091207028  0.6673241846882215  0.5180671503440549  1.0000
  H   H18       1.0  0.7203475912555919  0.16732418381919575  0.9819328500096641  1.0000
  H   H19       1.0  0.22034759104329876  0.33267581704983  0.48193284969122524  1.0000
  H   H20       1.0  0.27965240890840964  0.832675815294691  0.018067150025616013  1.0000
  C   C1        1.0  0.9693227238562715  0.008546626689809026  0.569126925989644  1.0000
  C   C2        1.0  0.5306772762594384  0.5085466275588348  0.9308730737624774  1.0000
  C   C3        1.0  0.03067727630773002  0.9914533724240777  0.4308730740456362  1.0000
  C   C4        1.0  0.46932272390456303  0.4914533715550519  0.06912692627280266  1.0000
  C   C5        1.0  0.9230030962524617  0.8408029954780742  0.4354281944276009  1.0000
  C   C6        1.0  0.5769969034104482  0.34080299460904845  0.06457180554323674  1.0000
  C   C7        1.0  0.07699690308539395  0.15919700625997735  0.5645718056065366  1.0000
  C   C8        1.0  0.4230030967535533  0.6591970045048384  0.9354281944920433  1.0000
  C   C9        1.0  0.8471358031637755  0.6769196218322924  0.3661151915360872  1.0000
  C   C10       1.0  0.6528641964991345  0.17691962096326666  0.13388480843475045  1.0000
  C   C11       1.0  0.152864197000226  0.32308037728159433  0.6338848084991928  1.0000
  C   C12       1.0  0.3471358028387212  0.8230803781506201  0.866115191599387  1.0000
  C   C13       1.0  0.8761975538596124  0.6669027149507119  0.2959408249383181  1.0000
  C   C14       1.0  0.6238024458032976  0.16690271408168605  0.20405917503251955  1.0000
  C   C15       1.0  0.1238024454782433  0.33309728678733974  0.7040591750958194  1.0000
  C   C16       1.0  0.37619755436070396  0.8330972850322007  0.7959408250027606  1.0000
  C   C17       1.0  0.9812198064995518  0.8176030796125618  0.29120821685190956  1.0000
  C   C18       1.0  0.5187801931633582  0.31760307874353605  0.2087917831189281  1.0000
  C   C19       1.0  0.018780192838303896  0.1823969195013249  0.7087917831822279  1.0000
  C   C20       1.0  0.4812198070006433  0.6823969203703507  0.791208216916352  1.0000
  C   C21       1.0  0.9429944357868153  0.024643356099402793  0.6431327396117743  1.0000
  C   C22       1.0  0.5570055643288947  0.5246433543442638  0.8568672601403472  1.0000
  C   C23       1.0  0.057005564377186325  0.9753566456386488  0.3568672604235059  1.0000
  C   C24       1.0  0.442994435574522  0.475356644769623  0.14313273929333536  1.0000
  C   C25       1.0  0.5656699959801476  0.35231709511689696  0.5761563518226844  1.0000
  C   C26       1.0  0.9343300035700014  0.852317093361758  0.9238436485298921  1.0000
  C   C27       1.0  0.43433000335770816  0.6476829066211546  0.42384364821145315  1.0000
  C   C28       1.0  0.06566999659400023  0.1476829057521288  0.07615635150538815  1.0000
  C   C29       1.0  0.44089429291037635  0.33050659055559034  0.5514441627054105  1.0000
  C   C30       1.0  0.05910570775471662  0.8305065914246161  0.9485558373943122  1.0000
  C   C31       1.0  0.5591057072536251  0.6694934111824613  0.44855583732986953  1.0000
  C   C32       1.0  0.9408942924092849  0.16949341031343548  0.051444162640968044  1.0000
  C   C33       1.0  0.6244502403585518  0.5088825547712165  0.5291949062679834  1.0000
  C   C34       1.0  0.8755497600177427  0.008882553902190678  0.9708050940857355  1.0000
  C   C35       1.0  0.3755497598054496  0.4911174469668351  0.4708050937672966  1.0000
  C   C36       1.0  0.12445024014625879  0.9911174452116961  0.029194905949544634  1.0000
  N   N1        1.0  0.8948427626162833  0.8532339398150492  0.5044175121464054  1.0000
  N   N2        1.0  0.6051572374994266  0.3532339415701883  0.9955824876057159  1.0000
  N   N3        1.0  0.10515723754771826  0.14676605929883754  0.49558248788887477  1.0000
  N   N4        1.0  0.3948427626645749  0.6467660601678633  0.004417512429564148  1.0000
  O   O1        1.0  0.7377320009721282  0.5237078212132181  0.5523946015352298  1.0000
  O   O2        1.0  0.7622679994041665  0.023707820344192325  0.9476053988184893  1.0000
  O   O3        1.0  0.2622679991918734  0.47629217790066863  0.4476053985000504  1.0000
  O   O4        1.0  0.23773200075983505  0.9762921787696944  0.05239460121679094  1.0000
  O   O5        1.0  0.3837287919869705  0.18885232299646573  0.5910515822945119  1.0000
  O   O6        1.0  0.11627120785197677  0.6888523238654914  0.9089484178040681  1.0000
  O   O7        1.0  0.6162712073508853  0.811147676117421  0.40894841773962565  1.0000
  O   O8        1.0  0.8837287923120248  0.31114767524839526  0.09105158223121203  1.0000
  Br  Br1       1.0  0.6484959079350531  0.1628504000262689  0.6773059932287621  1.0000
  Br  Br2       1.0  0.8515040916150955  0.6628504008952947  0.8226940071238144  1.0000
  Br  Br3       1.0  0.3515040914028026  0.8371495990876179  0.32269400680537547  1.0000
  Br  Br4       1.0  0.1484959085489058  0.33714959821859203  0.17730599291146584  1.0000
