data_image0
_chemical_formula_structural       H12C20N4O8Br4
_chemical_formula_sum              "H12 C20 N4 O8 Br4"
_cell_length_a       8.478764534553036
_cell_length_b       6.881556376440035
_cell_length_c       10.559101884163333
_cell_angle_alpha    90.0
_cell_angle_beta     100.78896437466561
_cell_angle_gamma    90.0

_space_group_name_H-M_alt    "P 1"
_space_group_IT_number       1

loop_
  _space_group_symop_operation_xyz
  'x, y, z'

loop_
  _atom_site_type_symbol
  _atom_site_label
  _atom_site_symmetry_multiplicity
  _atom_site_fract_x
  _atom_site_fract_y
  _atom_site_fract_z
  _atom_site_occupancy
  H   H1        1.0  0.329769158374108  0.0  0.2282008620578005  1.0000
  H   H2        1.0  0.829769158524913  0.5000000002586598  0.2282008619823445  1.0000
  H   H3        1.0  0.6702308419340225  0.0  0.7717991384474566  1.0000
  H   H4        1.0  0.17023084178321743  0.5000000002586598  0.7717991385229126  1.0000
  H   H5        1.0  0.06755988862367894  0.8019706964683746  0.6181340867803029  1.0000
  H   H6        1.0  0.06755988862367894  0.19802930404894498  0.6181340867803029  1.0000
  H   H7        1.0  0.5675598887744839  0.30197069620971484  0.6181340867048468  1.0000
  H   H8        1.0  0.5675598887744839  0.6980293043076048  0.6181340867048468  1.0000
  H   H9        1.0  0.9324401114569858  0.19802930404894498  0.38186591276086446  1.0000
  H   H10       1.0  0.9324401114569858  0.8019706964683746  0.38186591276086446  1.0000
  H   H11       1.0  0.4324401113061809  0.6980293043076048  0.3818659128363205  1.0000
  H   H12       1.0  0.4324401113061809  0.30197069620971484  0.3818659128363205  1.0000
  C   C1        1.0  0.13124814490676096  0.0  0.9303082331435742  1.0000
  C   C2        1.0  0.6312481450575661  0.5000000002586598  0.9303082330681183  1.0000
  C   C3        1.0  0.8687518551739037  0.0  0.06969176639759297  1.0000
  C   C4        1.0  0.36875185502309876  0.5000000002586598  0.069691766473049  1.0000
  C   C5        1.0  0.16542446509535594  0.0  0.06255987759744062  1.0000
  C   C6        1.0  0.6654244652461608  0.5000000002586598  0.06255987752198461  1.0000
  C   C7        1.0  0.8345755352127744  0.0  0.9374401229078163  1.0000
  C   C8        1.0  0.3345755350619694  0.5000000002586598  0.9374401229832723  1.0000
  C   C9        1.0  0.969135685052379  0.0  0.8601785810078394  1.0000
  C   C10       1.0  0.46913568467410843  0.5000000002586598  0.8601785801192058  1.0000
  C   C11       1.0  0.030864315255751344  0.0  0.13982141949741764  1.0000
  C   C12       1.0  0.5308643154065563  0.5000000002586598  0.1398214194219616  1.0000
  C   C13       1.0  0.038683452595023864  0.6671624090326895  0.5643587809040949  1.0000
  C   C14       1.0  0.038683452595023864  0.33283759148463005  0.5643587809040949  1.0000
  C   C15       1.0  0.5386834529732945  0.1671624087740297  0.5643587817927285  1.0000
  C   C16       1.0  0.5386834529732945  0.83283759174329  0.5643587817927285  1.0000
  C   C17       1.0  0.9613165474856409  0.33283759148463005  0.43564121863707245  1.0000
  C   C18       1.0  0.9613165474856409  0.6671624090326895  0.43564121863707245  1.0000
  C   C19       1.0  0.4613165473348359  0.83283759174329  0.4356412187125285  1.0000
  C   C20       1.0  0.4613165473348359  0.1671624087740297  0.4356412187125285  1.0000
  N   N1        1.0  0.07711230434215226  0.5000000002586598  0.627952717124171  1.0000
  N   N2        1.0  0.5771123044929573  0.0  0.6279527170487149  1.0000
  N   N3        1.0  0.9228876947870817  0.5000000002586598  0.3720472833833059  1.0000
  N   N4        1.0  0.42288769581517305  0.0  0.372047283456542  1.0000
  O   O1        1.0  0.3128987232621025  0.0  0.12666569307717312  1.0000
  O   O2        1.0  0.8128987234129075  0.5000000002586598  0.1266656930017171  1.0000
  O   O3        1.0  0.6871012770460279  0.0  0.8733343074280837  1.0000
  O   O4        1.0  0.18710127689522288  0.5000000002586598  0.8733343075035398  1.0000
  O   O5        1.0  0.9301344100490021  0.0  0.7407301729743953  1.0000
  O   O6        1.0  0.4301344110770935  0.5000000002586598  0.7407301730476313  1.0000
  O   O7        1.0  0.06986558885276625  0.0  0.259269826568992  1.0000
  O   O8        1.0  0.5698655890035712  0.5000000002586598  0.259269826493536  1.0000
  Br  Br1       1.0  0.3002652266598086  0.0  0.8364866918823134  1.0000
  Br  Br2       1.0  0.8002652268106135  0.5000000002586598  0.8364866918068573  1.0000
  Br  Br3       1.0  0.6997347734208562  0.0  0.163513307658854  1.0000
  Br  Br4       1.0  0.1997347732700512  0.5000000002586598  0.16351330773431003  1.0000
