data_image0
_chemical_formula_structural       H132C104O16
_chemical_formula_sum              "H132 C104 O16"
_cell_length_a       6.26901130263107
_cell_length_b       7.895393666191755
_cell_length_c       43.333907282432214
_cell_angle_alpha    90.0
_cell_angle_beta     92.66263295350223
_cell_angle_gamma    90.0

_space_group_name_H-M_alt    "P 1"
_space_group_IT_number       1

loop_
  _space_group_symop_operation_xyz
  'x, y, z'

loop_
  _atom_site_type_symbol
  _atom_site_label
  _atom_site_symmetry_multiplicity
  _atom_site_fract_x
  _atom_site_fract_y
  _atom_site_fract_z
  _atom_site_occupancy
  H   H1        1.0  0.2182923825326056  0.8533473421154636  0.04703704610035375  1.0000
  H   H2        1.0  0.7817076165429858  0.35334734124101413  0.45296295382551693  1.0000
  H   H3        1.0  0.7817076171167717  0.14665265836687397  0.9529629539579345  1.0000
  H   H4        1.0  0.21829238311011576  0.6466526579747621  0.547037046002031  1.0000
  H   H5        1.0  0.1536055220446205  0.03253873598476509  0.1097220017571824  1.0000
  H   H6        1.0  0.8463944770309709  0.5325387368592145  0.3902779981686883  1.0000
  H   H7        1.0  0.8463944776047568  0.9674612632310111  0.890277998301106  1.0000
  H   H8        1.0  0.15360552262213067  0.467461263623123  0.6097220016588596  1.0000
  H   H9        1.0  0.23655920225535954  0.22801949163205615  0.12685207419853226  1.0000
  H   H10       1.0  0.7634407968165076  0.7280194912399442  0.373147925958079  1.0000
  H   H11       1.0  0.7634407973940178  0.7719805088502814  0.8731479258597562  1.0000
  H   H12       1.0  0.23655920283286969  0.27198050797583195  0.6268520741002094  1.0000
  H   H13       1.0  0.0192615052793787  0.2229449644211381  0.09909938279582743  1.0000
  H   H14       1.0  0.9807384953930803  0.7229449640290262  0.4009006171413132  1.0000
  H   H15       1.0  0.9807384943699986  0.7770550360611994  0.900900617262461  1.0000
  H   H16       1.0  0.019261505853164565  0.27705503518675  0.5990993829282452  1.0000
  H   H17       1.0  0.6817014079970933  0.04257941962280303  0.11033301168102413  1.0000
  H   H18       1.0  0.31829859107849806  0.5425794204972524  0.3896669882448465  1.0000
  H   H19       1.0  0.3182985916560082  0.9574205795929732  0.8896669881465238  1.0000
  H   H20       1.0  0.6817014085708792  0.45742057998508506  0.6103330118134418  1.0000
  H   H21       1.0  0.8483004602239359  0.8759959911328914  0.12534965674172857  1.0000
  H   H22       1.0  0.15169954044479883  0.375995990258442  0.3746503434261526  1.0000
  H   H23       1.0  0.15169953942544143  0.1240040093494461  0.8746503433165599  1.0000
  H   H24       1.0  0.848300460801446  0.6240040089573342  0.6253496566434057  1.0000
  H   H25       1.0  0.6520671440011273  0.9672329896228543  0.1485000543833421  1.0000
  H   H26       1.0  0.34793285667133156  0.4672329900149662  0.35149994555379865  1.0000
  H   H27       1.0  0.34793285564825  0.03276700959292189  0.8514999456749464  1.0000
  H   H28       1.0  0.6520671445749132  0.5327670104673713  0.6485000545157598  1.0000
  H   H29       1.0  0.7586729329803191  0.5137379365095597  0.20048717185673956  1.0000
  H   H30       1.0  0.24132706769214  0.013737935635110316  0.29951282808040114  1.0000
  H   H31       1.0  0.2413270666690583  0.48626206397277777  0.7995128282015488  1.0000
  H   H32       1.0  0.7586729319609616  0.9862620635806658  0.7004871717471467  1.0000
  H   H33       1.0  0.6532954744927445  0.6008947901249304  0.16516788291016962  1.0000
  H   H34       1.0  0.3467045245828469  0.10089479051704232  0.33483211701570115  1.0000
  H   H35       1.0  0.34670452515663275  0.3991052090908458  0.8348321171481187  1.0000
  H   H36       1.0  0.6532954750665304  0.8991052099652952  0.6651678830425873  1.0000
  H   H37       1.0  0.8866233115350676  0.6913588898516397  0.18350409745669866  1.0000
  H   H38       1.0  0.11337668913366711  0.19135888897719036  0.31649590271118255  1.0000
  H   H39       1.0  0.11337668971117727  0.30864111063069777  0.8164959026128599  1.0000
  H   H40       1.0  0.8866233105157102  0.8086411102385859  0.6835040973471057  1.0000
  H   H41       1.0  0.22500933283369443  0.5461465915834263  0.18650972715818553  1.0000
  H   H42       1.0  0.7749906678387646  0.046146590708976955  0.31349027277895514  1.0000
  H   H43       1.0  0.7749906668156828  0.4538534088989112  0.8134902729001028  1.0000
  H   H44       1.0  0.22500933181061275  0.9538534085067992  0.6865097272793332  1.0000
  H   H45       1.0  0.26944026002646365  0.3439688690418292  0.17011850124108235  1.0000
  H   H46       1.0  0.7305597390491279  0.8439688686497174  0.32988149868478833  1.0000
  H   H47       1.0  0.7305597396229137  0.6560311314405083  0.829881498817206  1.0000
  H   H48       1.0  0.2694402606039738  0.15603113056605886  0.6701185011427595  1.0000
  H   H49       1.0  0.11049253061005188  0.3627012155533538  0.20267927646486547  1.0000
  H   H50       1.0  0.889507470062407  0.8627012164278032  0.29732072347227523  1.0000
  H   H51       1.0  0.8895074690430497  0.6372987836624224  0.7973207233626823  1.0000
  H   H52       1.0  0.11049253118383776  0.13729878405453436  0.7026792765972831  1.0000
  H   H53       1.0  0.32409707135477217  0.9555417182432825  0.1514431617418418  1.0000
  H   H54       1.0  0.6759029293176868  0.45554171736883314  0.34855683819529887  1.0000
  H   H55       1.0  0.6759029282946051  0.044458282239054965  0.8485568383164466  1.0000
  H   H56       1.0  0.324097071928558  0.544458281846943  0.6514431618742594  1.0000
  H   H57       1.0  0.48201896713066067  0.8189780248308846  0.19774520011570024  1.0000
  H   H58       1.0  0.5179810335417983  0.31897802522299645  0.3022547998214405  1.0000
  H   H59       1.0  0.5179810325187166  0.18102197438489168  0.8022547999425882  1.0000
  H   H60       1.0  0.4820189661113033  0.681021975259341  0.6977452000061074  1.0000
  H   H61       1.0  0.9492599342329174  0.9845256283147835  0.24952615466692218  1.0000
  H   H62       1.0  0.05074006643581728  0.48452562870689536  0.250473845500959  1.0000
  H   H63       1.0  0.050740065416459895  0.01547437090099273  0.7504738453913662  1.0000
  H   H64       1.0  0.9492599348104276  0.5154743717754421  0.7495261545685993  1.0000
  H   H65       1.0  0.7844631341064817  0.11361682747260413  0.20210093897723783  1.0000
  H   H66       1.0  0.21553686496910962  0.6136168270804923  0.2978990609486329  1.0000
  H   H67       1.0  0.21553686554289547  0.8863831730097333  0.7978990610810506  1.0000
  H   H68       1.0  0.784463134683992  0.38638317213528395  0.702100938878915  1.0000
  H   H69       1.0  0.32766952692518475  0.5748072942117156  0.13871055770714683  1.0000
  H   H70       1.0  0.6723304721504068  0.07480729333726617  0.3612894422187239  1.0000
  H   H71       1.0  0.6723304727241927  0.42519270627062195  0.8612894423511416  1.0000
  H   H72       1.0  0.3276695275026948  0.92519270587851  0.638710557608824  1.0000
  H   H73       1.0  0.38304849928137175  0.7301850222727049  0.09046879353994164  1.0000
  H   H74       1.0  0.6169515013873629  0.23018502139825547  0.40953120662793957  1.0000
  H   H75       1.0  0.6169515003680055  0.2698149782096326  0.9095312065183468  1.0000
  H   H76       1.0  0.3830484982620144  0.7698149778175207  0.5904687934303487  1.0000
  H   H77       1.0  0.7188022582033853  0.6693845390674712  0.06353655574386256  1.0000
  H   H78       1.0  0.28119774246907364  0.1693845394595831  0.4364634441932782  1.0000
  H   H79       1.0  0.28119774304658385  0.33061546014830495  0.9364634440949553  1.0000
  H   H80       1.0  0.7188022571803035  0.8306154610227544  0.5635365558650102  1.0000
  H   H81       1.0  0.662682807590103  0.5140709977996206  0.11220536631048277  1.0000
  H   H82       1.0  0.33731719308235597  0.014070998191732447  0.38779463362665795  1.0000
  H   H83       1.0  0.3373171920592744  0.48592900268271694  0.8877946337478055  1.0000
  H   H84       1.0  0.662682808167613  0.9859290022906051  0.6122053662121599  1.0000
  H   H85       1.0  0.49328145385862726  0.6264666993337823  0.23855862057998017  1.0000
  H   H86       1.0  0.5067185452169641  0.12646669845933295  0.26144137934589057  1.0000
  H   H87       1.0  0.5067185457907499  0.37353330114855515  0.7614413794783081  1.0000
  H   H88       1.0  0.4932814544361374  0.8735333007564432  0.7385586204816573  1.0000
  H   H89       1.0  0.6297417717100716  0.8225999303632774  0.2459240367614119  1.0000
  H   H90       1.0  0.3702582289623873  0.32259993075538934  0.2540759631757288  1.0000
  H   H91       1.0  0.37025822793930563  0.17740006885249876  0.7540759632968764  1.0000
  H   H92       1.0  0.62974177068699  0.6774000697269481  0.7459240368825595  1.0000
  H   H93       1.0  0.5411044264980638  0.6988737222347372  0.277565490802146  1.0000
  H   H94       1.0  0.4588955725775276  0.19887372262684905  0.22243450912372476  1.0000
  H   H95       1.0  0.45889557315131346  0.30112627824760035  0.7224345092561425  1.0000
  H   H96       1.0  0.5411044270755739  0.8011262778554885  0.7775654907038232  1.0000
  H   H97       1.0  0.776996258508126  0.12815292976873663  0.05467012167065397  1.0000
  H   H98       1.0  0.2230037421606085  0.6281529293766247  0.44532987849722727  1.0000
  H   H99       1.0  0.2230037411412511  0.8718470707136009  0.9453298783876344  1.0000
  H   H100      1.0  0.7769962590856363  0.37184706983915145  0.5546701215723311  1.0000
  H   H101      1.0  0.6202219669417537  0.29025385140869836  0.07114059728333037  1.0000
  H   H102      1.0  0.37977803213383765  0.7902538522831477  0.42885940264254035  1.0000
  H   H103      1.0  0.37977803270762356  0.7097461478070779  0.9288594027749582  1.0000
  H   H104      1.0  0.6202219675192638  0.20974614819918974  0.5711405971850075  1.0000
  H   H105      1.0  0.7262512562148473  0.2621125313689632  0.0028943744422668945  1.0000
  H   H106      1.0  0.2737487444538873  0.7621125309768514  0.4971056257256143  1.0000
  H   H107      1.0  0.27374874503139746  0.7378874691133743  0.9971056256272914  1.0000
  H   H108      1.0  0.72625125519549  0.2378874682389249  0.5028943743326741  1.0000
  H   H109      1.0  0.8143261409646444  0.41695959937965754  0.029976450599521125  1.0000
  H   H110      1.0  0.18567385970781453  0.9169596002541069  0.47002354933761964  1.0000
  H   H111      1.0  0.18567386028160038  0.5830403998361187  0.9700235494700372  1.0000
  H   H112      1.0  0.8143261399452871  0.08304040022823057  0.5299764504899284  1.0000
  H   H113      1.0  0.4427681759764982  0.5230139552993012  0.03374332525570468  1.0000
  H   H114      1.0  0.5572318246922365  0.02301395569141301  0.46625667491217654  1.0000
  H   H115      1.0  0.5572318236728792  0.4769860439164751  0.9662566748025837  1.0000
  H   H116      1.0  0.44276817495714077  0.9769860447909244  0.5337433251461119  1.0000
  H   H117      1.0  0.14364382783006469  0.39444969708548566  0.001425812631635041  1.0000
  H   H118      1.0  0.8563561728423943  0.8944496966933738  0.4985741873055056  1.0000
  H   H119      1.0  0.8563561718193126  0.6055503033968518  0.9985741874266534  1.0000
  H   H120      1.0  0.14364382680698304  0.10555030252240245  0.5014258127527826  1.0000
  H   H121      1.0  0.3196677878378749  0.24359340538464413  0.9870125782349569  1.0000
  H   H122      1.0  0.6803322123890125  0.7435934049925322  0.5129874217250086  1.0000
  H   H123      1.0  0.6803322118152266  0.7564065950976934  0.012987421592590892  1.0000
  H   H124      1.0  0.31966778726036477  0.2564065954898052  0.4870125783332798  1.0000
  H   H125      1.0  0.11262415743827305  0.12165087652472638  0.02974023902839252  1.0000
  H   H126      1.0  0.8873758432341858  0.6216508761326145  0.47025976090874816  1.0000
  H   H127      1.0  0.8873758438116961  0.8783491239576111  0.9702597608104253  1.0000
  H   H128      1.0  0.1126241564151914  0.3783491230831617  0.5297402391495403  1.0000
  H   H129      1.0  0.2040767182745386  0.289585997439291  0.05458526199886841  1.0000
  H   H130      1.0  0.7959232823979203  0.7895859983137404  0.44541473793827235  1.0000
  H   H131      1.0  0.7959232813748388  0.7104140017764853  0.94541473805942  1.0000
  H   H132      1.0  0.20407671885204878  0.21041400216859713  0.5545852619005455  1.0000
  C   C1        1.0  0.8219013771676131  0.28744380533145175  0.1527227615645361  1.0000
  C   C2        1.0  0.17809862350484587  0.7874438062059012  0.3472772383726046  1.0000
  C   C3        1.0  0.17809862407863175  0.7125561938843245  0.8472772385050222  1.0000
  C   C4        1.0  0.8219013761482558  0.21255619427643635  0.6527227614549433  1.0000
  C   C5        1.0  0.9364579215115463  0.1219571741081332  0.1436727311931022  1.0000
  C   C6        1.0  0.06354207756404516  0.6219571737160213  0.3563272687327685  1.0000
  C   C7        1.0  0.0635420781415553  0.878042825107643  0.8563272686344457  1.0000
  C   C8        1.0  0.9364579220853322  0.3780428254997549  0.6436727313255198  1.0000
  C   C9        1.0  0.9461429498994326  0.4524558940356248  0.16079778285124588  1.0000
  C   C10       1.0  0.053857049176158724  0.9524558936435129  0.3392022170746248  1.0000
  C   C11       1.0  0.0538570497499446  0.5475441064467127  0.8392022172070426  1.0000
  C   C12       1.0  0.9461429504769429  0.04754410557226332  0.6607977827529231  1.0000
  C   C13       1.0  0.09733801376138695  0.1544298171250157  0.11850996914319627  1.0000
  C   C14       1.0  0.9026619869073478  0.654429817999465  0.38149003102468493  1.0000
  C   C15       1.0  0.9026619858879903  0.8455701820907605  0.881490030915092  1.0000
  C   C16       1.0  0.09733801433889709  0.34557018248287236  0.6185099690448734  1.0000
  C   C17       1.0  0.7684106246603993  0.994410418522799  0.1311051253973209  1.0000
  C   C18       1.0  0.23158937601205967  0.4944104189149109  0.3688948745398198  1.0000
  C   C19       1.0  0.231589374988978  0.005589581959538504  0.8688948746609675  1.0000
  C   C20       1.0  0.7684106252379094  0.5055895815674266  0.631105125298998  1.0000
  C   C21       1.0  0.8011467992398877  0.5722386129201362  0.17861074205704555  1.0000
  C   C22       1.0  0.19885320142884685  0.07223861331224822  0.3213892581108357  1.0000
  C   C23       1.0  0.19885320040948948  0.42776138756220117  0.8213892580012429  1.0000
  C   C24       1.0  0.8011467982205305  0.9277613871700893  0.6786107419474527  1.0000
  C   C25       1.0  0.15058780402562177  0.4231393989011087  0.1809312864462056  1.0000
  C   C26       1.0  0.8494121966468371  0.923139399775558  0.31906871349093513  1.0000
  C   C27       1.0  0.849412197220623  0.5768606003146676  0.8190687136233528  1.0000
  C   C28       1.0  0.15058780300626443  0.07686060070677944  0.6809312863366127  1.0000
  C   C29       1.0  0.04192089824275836  0.044307310666211915  0.17294879819153564  1.0000
  C   C30       1.0  0.9580791024259763  0.5443073115406614  0.3270512019763456  1.0000
  C   C31       1.0  0.9580791030034864  0.9556926885495642  0.8270512018780227  1.0000
  C   C32       1.0  0.04192089722340097  0.4556926889416762  0.6729487980819427  1.0000
  C   C33       1.0  0.23780524437917955  0.9605753785875639  0.17261635778698722  1.0000
  C   C34       1.0  0.762194756289555  0.4605753789796758  0.327383642380894  1.0000
  C   C35       1.0  0.7621947552701978  0.039424620628212274  0.8273836422713011  1.0000
  C   C36       1.0  0.23780524495668975  0.5394246202361003  0.6726163576886645  1.0000
  C   C37       1.0  0.32870540162251644  0.882570159843726  0.19902523886255735  1.0000
  C   C38       1.0  0.6712945990462184  0.38257016023583795  0.3009747613053238  1.0000
  C   C39       1.0  0.6712945980268609  0.11742984063861145  0.800974761195731  1.0000
  C   C40       1.0  0.328705400603159  0.6174298402464996  0.6990252387529646  1.0000
  C   C41       1.0  0.22345196492139782  0.890652927175932  0.2267678760879393  1.0000
  C   C42       1.0  0.776548035751061  0.3906529275680438  0.2732321238492014  1.0000
  C   C43       1.0  0.776548036324847  0.10934707330640556  0.773232123981619  1.0000
  C   C44       1.0  0.22345196389831617  0.6093470729142937  0.726767876209087  1.0000
  C   C45       1.0  0.02698843987315003  0.9750870210520319  0.22762172390680302  1.0000
  C   C46       1.0  0.9730115607993088  0.47508702017758253  0.2723782760303377  1.0000
  C   C47       1.0  0.9730115613730949  0.024912979430305557  0.7723782761627553  1.0000
  C   C48       1.0  0.026988438850068363  0.5249129790381937  0.7276217240279507  1.0000
  C   C49       1.0  0.9372887274987588  0.04853191318892417  0.2009255885816559  1.0000
  C   C50       1.0  0.06271127157683266  0.5485319127968122  0.2990744113442148  1.0000
  C   C51       1.0  0.06271127215434281  0.9514680872934133  0.799074411245892  1.0000
  C   C52       1.0  0.9372887280725446  0.45146808768552527  0.7009255887140736  1.0000
  C   C53       1.0  0.9902353842378762  0.5346055369061677  0.12959021222736905  1.0000
  C   C54       1.0  0.009764614833990935  0.03460553729827969  0.3704097879292421  1.0000
  C   C55       1.0  0.009764615411501075  0.4653944635761697  0.8704097878309195  1.0000
  C   C56       1.0  0.9902353848153864  0.9653944631840579  0.6295902121290462  1.0000
  C   C57       1.0  0.19213773176171414  0.5945549479186654  0.12249351087037443  1.0000
  C   C58       1.0  0.8078622673138772  0.09455494704421602  0.37750648905549633  1.0000
  C   C59       1.0  0.8078622678913875  0.4054450525636721  0.8775064889571733  1.0000
  C   C60       1.0  0.1921377323355  0.9054450521715601  0.622493511002792  1.0000
  C   C61       1.0  0.22515311651599726  0.68095782519648  0.09500677948747714  1.0000
  C   C62       1.0  0.7748468841564616  0.18095782558859178  0.4049932204496635  1.0000
  C   C63       1.0  0.77484688313338  0.3190421740192963  0.9049932205708111  1.0000
  C   C64       1.0  0.22515311708978314  0.8190421748937458  0.5950067796198949  1.0000
  C   C65       1.0  0.05395459915312314  0.7089816729429751  0.07356204994636692  1.0000
  C   C66       1.0  0.9460453999224683  0.20898167206852566  0.42643794997950374  1.0000
  C   C67       1.0  0.9460454004999783  0.29101832753936246  0.926437949881181  1.0000
  C   C68       1.0  0.05395459972690899  0.7910183271472505  0.5735620500787847  1.0000
  C   C69       1.0  0.8521760430407317  0.6445300811016467  0.0798901778372469  1.0000
  C   C70       1.0  0.14782395603485982  0.1445300814937586  0.42010982208862374  1.0000
  C   C71       1.0  0.1478239566086457  0.3554699193806908  0.9201098222210415  1.0000
  C   C72       1.0  0.8521760436182417  0.8554699189885788  0.579890177738924  1.0000
  C   C73       1.0  0.8222377295955382  0.5594395361074482  0.10746094996601  1.0000
  C   C74       1.0  0.17776226947632887  0.05943953649956003  0.3925390501906012  1.0000
  C   C75       1.0  0.17776227005383902  0.440560463108328  0.8925390500922783  1.0000
  C   C76       1.0  0.8222377301730485  0.9405604639827775  0.6074609498676872  1.0000
  C   C77       1.0  0.5031224844091001  0.7383208458574183  0.2537403166995726  1.0000
  C   C78       1.0  0.4968775146664912  0.2383208462495302  0.24625968322629813  1.0000
  C   C79       1.0  0.4968775152402771  0.2616791546249192  0.7462596833587158  1.0000
  C   C80       1.0  0.5031224849866103  0.7616791542328073  0.7537403166012497  1.0000
  C   C81       1.0  0.4429971152487986  0.11092260715891832  0.044777195199745844  1.0000
  C   C82       1.0  0.5570028854236603  0.6109226080333677  0.45522280473739485  1.0000
  C   C83       1.0  0.5570028844005787  0.8890773920568579  0.9552228048585425  1.0000
  C   C84       1.0  0.4429971142294412  0.38907739244896977  0.544777195090153  1.0000
  C   C85       1.0  0.6415678797387329  0.21398712355971924  0.05011047924285244  1.0000
  C   C86       1.0  0.35843212093372623  0.7139871231676073  0.4498895206942883  1.0000
  C   C87       1.0  0.35843211991436885  0.7860128769226182  0.9498895205846954  1.0000
  C   C88       1.0  0.6415678803125185  0.2860128773147302  0.5501104793752701  1.0000
  C   C89       1.0  0.6785637802240414  0.3353932307820263  0.02307696105940549  1.0000
  C   C90       1.0  0.32143621885155  0.8353932316564757  0.47692303886646514  1.0000
  C   C91       1.0  0.32143621942533585  0.6646067684337499  0.9769230389988829  1.0000
  C   C92       1.0  0.6785637807978272  0.16460676882586184  0.5230769611918231  1.0000
  C   C93       1.0  0.480385317178571  0.4415809606719266  0.01389036844962308  1.0000
  C   C94       1.0  0.519614683493888  0.9415809602798146  0.48610963148751757  1.0000
  C   C95       1.0  0.5196146824708063  0.5584190398104109  0.9861096316086653  1.0000
  C   C96       1.0  0.4803853177560811  0.0584190389359615  0.5138903683513002  1.0000
  C   C97       1.0  0.2900394043773398  0.3231337407436167  0.007263806213773037  1.0000
  C   C98       1.0  0.7099605962951191  0.8231337403515048  0.4927361937233677  1.0000
  C   C99       1.0  0.7099605968726292  0.6768662597387208  0.9927361936250448  1.0000
  C   C100      1.0  0.29003940335425815  0.1768662588642714  0.5072638063349206  1.0000
  C   C101      1.0  0.2460223660992975  0.2084644426341674  0.034988898994568425  1.0000
  C   C102      1.0  0.7539776345694372  0.7084644422420555  0.4650111011733128  1.0000
  C   C103      1.0  0.7539776351469473  0.7915355578481701  0.96501110107499  1.0000
  C   C104      1.0  0.24602236507994013  0.291535558240282  0.5349888988849756  1.0000
  O   O1        1.0  0.6256020906219959  0.2895025310501707  0.15252285891831877  1.0000
  O   O2        1.0  0.3743979084535956  0.7895025306580588  0.3474771410075519  1.0000
  O   O3        1.0  0.37439790902738146  0.7104974694321667  0.8474771411399697  1.0000
  O   O4        1.0  0.6256020911995059  0.21049746855771737  0.6525228588199959  1.0000
  O   O5        1.0  0.30216823860523095  0.8240492779808636  0.25414048340365875  1.0000
  O   O6        1.0  0.697831762067228  0.32404927837297554  0.24585951653348195  1.0000
  O   O7        1.0  0.6978317610478707  0.17595072250147387  0.7458595164238891  1.0000
  O   O8        1.0  0.3021682391790168  0.675950722109362  0.7541404835360764  1.0000
  O   O9        1.0  0.07379717573995853  0.7980244084572761  0.046964417961489036  1.0000
  O   O10       1.0  0.926202823335633  0.2980244075828267  0.45303558196438165  1.0000
  O   O11       1.0  0.9262028239094187  0.2019755920250614  0.9530355820967993  1.0000
  O   O12       1.0  0.07379717631374438  0.7019755916329495  0.5469644180939067  1.0000
  O   O13       1.0  0.44583683765957005  0.954498891204112  0.04764906347989097  1.0000
  O   O14       1.0  0.5541631614160214  0.4544988915962239  0.45235093644597973  1.0000
  O   O15       1.0  0.5541631619898073  0.045501109278225434  0.9523509365783975  1.0000
  O   O16       1.0  0.4458368382370801  0.5455011088861135  0.5476490633815682  1.0000
