data_image0
_chemical_formula_structural       H48C54N6O14Cl2
_chemical_formula_sum              "H48 C54 N6 O14 Cl2"
_cell_length_a       11.700413268234222
_cell_length_b       4.861776509482353
_cell_length_c       21.32265029942245
_cell_angle_alpha    90.0
_cell_angle_beta     90.83746923582471
_cell_angle_gamma    90.0

_space_group_name_H-M_alt    "P 1"
_space_group_IT_number       1

loop_
  _space_group_symop_operation_xyz
  'x, y, z'

loop_
  _atom_site_type_symbol
  _atom_site_label
  _atom_site_symmetry_multiplicity
  _atom_site_fract_x
  _atom_site_fract_y
  _atom_site_fract_z
  _atom_site_occupancy
  H   H1        1.0  0.8397211099113661  0.591361109337812  0.28123461794610655  1.0000
  H   H2        1.0  0.1602788901130551  0.0913611103130063  0.718765382271727  1.0000
  H   H3        1.0  0.557558359911796  0.37548808474422657  0.03078595358413244  1.0000
  H   H4        1.0  0.44244164010152914  0.8754880837690323  0.9692140461646668  1.0000
  H   H5        1.0  0.08402555229378807  0.17698528682298806  0.21215968010007283  1.0000
  H   H6        1.0  0.9159744477195371  0.6769852879046551  0.7878403196487265  1.0000
  H   H7        1.0  0.30082976592380034  0.42811307881809885  0.22683932057231937  1.0000
  H   H8        1.0  0.6991702341006208  0.9281130798997658  0.7731606796455143  1.0000
  H   H9        1.0  0.19162887323237818  0.6722853824368834  0.20480085785737015  1.0000
  H   H10       1.0  0.808371126780947  0.1722853813552164  0.7951991418914292  1.0000
  H   H11       1.0  0.8765303857141101  0.7549504595370218  0.39006243725249895  1.0000
  H   H12       1.0  0.12346961431031105  0.2549504584553547  0.6099375629653346  1.0000
  H   H13       1.0  0.9782865789884616  0.33702337752552497  0.07957039568138685  1.0000
  H   H14       1.0  0.021713421035959447  0.837023378607192  0.9204296045364467  1.0000
  H   H15       1.0  0.48649610980908614  0.8024446048457672  0.08023084100701594  1.0000
  H   H16       1.0  0.513503890204239  0.3024446058209614  0.9197691587417833  1.0000
  H   H17       1.0  0.5197110829317974  0.0647901048897738  0.13427070786665166  1.0000
  H   H18       1.0  0.4802889170926239  0.5647901059714409  0.865729292351182  1.0000
  H   H19       1.0  0.8933204406768199  0.03333086572036887  0.9992751597416704  1.0000
  H   H20       1.0  0.10667955934760125  0.5333308647451747  0.0007248404761633156  1.0000
  H   H21       1.0  0.8046331951382831  0.9594968651688763  0.905736410211356  1.0000
  H   H22       1.0  0.19536680487504218  0.45949686408720936  0.0942635895374434  1.0000
  H   H23       1.0  0.6853679025052467  0.7275714346599254  0.8988152052840662  1.0000
  H   H24       1.0  0.3146320975191746  0.22757143563511967  0.10118479493376734  1.0000
  H   H25       1.0  0.784819611471691  0.6893293127447417  0.9623979103527952  1.0000
  H   H26       1.0  0.21518038854163424  0.1893293116630747  0.03760208939600398  1.0000
  H   H27       1.0  0.6498138345962065  0.20686250551387061  0.19905721072379376  1.0000
  H   H28       1.0  0.3501861654282148  0.7068625045386764  0.8009427894940399  1.0000
  H   H29       1.0  0.7988843958193531  0.21164510709060902  0.2141057998016324  1.0000
  H   H30       1.0  0.2011156042050682  0.7116451081722761  0.7858942004162012  1.0000
  H   H31       1.0  0.7088373973867622  0.9975888259241267  0.25911200027706716  1.0000
  H   H32       1.0  0.2911626026265629  0.49758882689932105  0.7408879994717321  1.0000
  H   H33       1.0  0.11636623422782293  0.3533706159979207  0.3205641740172247  1.0000
  H   H34       1.0  0.8836337657855023  0.8533706150227265  0.6794358257315746  1.0000
  H   H35       1.0  0.25731931116844325  0.7582302997289556  0.3727359367961082  1.0000
  H   H36       1.0  0.7426806888448821  0.2582302986472885  0.6272640629526911  1.0000
  H   H37       1.0  0.7543958459996423  0.18510387679169943  0.4121020002995723  1.0000
  H   H38       1.0  0.24560415402477886  0.6851038778733665  0.5878979999182613  1.0000
  H   H39       1.0  0.5559484376392744  0.8447586950962677  0.490220469494235  1.0000
  H   H40       1.0  0.44405156238514687  0.3447586940146007  0.5097795307235987  1.0000
  H   H41       1.0  0.6183703838650149  0.6778550851879634  0.5984555737248144  1.0000
  H   H42       1.0  0.38162961615940627  0.17785508616315768  0.4015444264930193  1.0000
  H   H43       1.0  0.8151706529256628  0.06170055727879172  0.521909143007429  1.0000
  H   H44       1.0  0.18482934709875834  0.5617005563035975  0.4780908572104047  1.0000
  H   H45       1.0  0.551325830912111  0.47599005949502077  0.2940064797434696  1.0000
  H   H46       1.0  0.4486741691012142  0.9759900585198265  0.7059935200053297  1.0000
  H   H47       1.0  0.5839205441161748  0.21600524580917327  0.3487313339611833  1.0000
  H   H48       1.0  0.4160794550424605  0.716005244833979  0.6512686657868492  1.0000
  C   C1        1.0  0.4603343044956502  0.695822663465086  0.1751442718975648  1.0000
  C   C2        1.0  0.539665695528771  0.1958226644402803  0.8248557283202688  1.0000
  C   C3        1.0  0.816627901113601  0.532467741976817  0.09997730797408565  1.0000
  C   C4        1.0  0.18337209891082015  0.03246774295201135  0.900022692243748  1.0000
  C   C5        1.0  0.7202330362725539  0.18485135592867633  0.010221872855890896  1.0000
  C   C6        1.0  0.2797669637407714  0.684851354953482  0.9897781268929083  1.0000
  C   C7        1.0  0.7352682213168091  0.8548348020305241  0.164579624298076  1.0000
  C   C8        1.0  0.26473177870761194  0.3548348030057184  0.8354203759197575  1.0000
  C   C9        1.0  0.9005994520568509  0.757216055246433  0.2897326213742507  1.0000
  C   C10       1.0  0.09940054795647438  0.25721605622162735  0.7102673783745486  1.0000
  C   C11       1.0  0.6980810843190394  0.54612692599535  0.08602229009151616  1.0000
  C   C12       1.0  0.30191891569428597  0.046126924913682935  0.9139777096572831  1.0000
  C   C13       1.0  0.9591754133695766  0.8753250055200725  0.23957622363903064  1.0000
  C   C14       1.0  0.04082458665484465  0.37532500649526684  0.7604237765788029  1.0000
  C   C15       1.0  0.6490548839427207  0.3706734681211988  0.04131632441257159  1.0000
  C   C16       1.0  0.3509451160706045  0.8706734671460045  0.9586836753362276  1.0000
  C   C17       1.0  0.9479665008273408  0.7641467131930254  0.17472683595080302  1.0000
  C   C18       1.0  0.05203349833129442  0.2641467121113584  0.8252731637972295  1.0000
  C   C19       1.0  0.6503577405168539  0.7550193911301022  0.12587752227575638  1.0000
  C   C20       1.0  0.3496422595075672  0.2550193900484352  0.8741224779420772  1.0000
  C   C21       1.0  0.9974895732026254  0.06425377007575792  0.3609825532282308  1.0000
  C   C22       1.0  0.0025104268106997444  0.5642537691005637  0.6390174465205685  1.0000
  C   C23       1.0  0.038048537097841145  0.08675154013710652  0.25123419190643553  1.0000
  C   C24       1.0  0.9619514629154841  0.5867515412187735  0.7487658078423638  1.0000
  C   C25       1.0  0.28053992763415214  0.6475369371380659  0.2210669785446256  1.0000
  C   C26       1.0  0.7194600723791731  0.14753693811326019  0.7789330212041737  1.0000
  C   C27       1.0  0.9203981296611774  0.8490677701759511  0.3508227417341941  1.0000
  C   C28       1.0  0.07960187035214777  0.3490677711511453  0.6491772580146052  1.0000
  C   C29       1.0  0.8873634710109444  0.34837052396312906  0.06915731606379862  1.0000
  C   C30       1.0  0.11263652901347666  0.848370525044796  0.930842684154035  1.0000
  C   C31       1.0  0.5285243222785793  0.8424700378578492  0.12578547566921633  1.0000
  C   C32       1.0  0.4714756777458419  0.34247003677618215  0.8742145245486174  1.0000
  C   C33       1.0  0.2988002014229816  0.7916011611174965  0.2835548521449464  1.0000
  C   C34       1.0  0.7011997986014396  0.2916011600358295  0.7164451480728872  1.0000
  C   C35       1.0  0.838251999766759  0.1758904730260933  0.0237958765763705  1.0000
  C   C36       1.0  0.16174800024656616  0.6758904741077604  0.9762041231724288  1.0000
  C   C37       1.0  0.7412716978646944  0.8389284435524718  0.9316282812790111  1.0000
  C   C38       1.0  0.2587283021486308  0.33892844452766613  0.06837171846978822  1.0000
  C   C39       1.0  0.7235477330154968  0.0781284432262895  0.21170331170962534  1.0000
  C   C40       1.0  0.2764522670089242  0.5781284422510953  0.7882966885082083  1.0000
  C   C41       1.0  0.05647251140565141  0.18574505599726762  0.31177139695742245  1.0000
  C   C42       1.0  0.9435274886187698  0.6857450550220734  0.6882286032604111  1.0000
  C   C43       1.0  0.7235403596464879  0.3023398663293359  0.45177073953789243  1.0000
  C   C44       1.0  0.27645964037793336  0.8023398653541417  0.548229260679941  1.0000
  C   C45       1.0  0.6121616624107161  0.6682720757861264  0.49586869922295884  1.0000
  C   C46       1.0  0.38783833760260905  0.16827207470445932  0.5041313005258404  1.0000
  C   C47       1.0  0.6489456881324327  0.5236840473917802  0.44305048767370325  1.0000
  C   C48       1.0  0.3510543118919884  0.023684048366974395  0.5569495125441303  1.0000
  C   C49       1.0  0.6466379374291271  0.5800072966127023  0.5552213574525562  1.0000
  C   C50       1.0  0.35336206259529407  0.08000729758789663  0.44477864276527734  1.0000
  C   C51       1.0  0.6101067165192818  0.616816697384408  0.3788765495468583  1.0000
  C   C52       1.0  0.3898932835051393  0.11681669835960225  0.6211234506709753  1.0000
  C   C53       1.0  0.7563314389912462  0.2314136361072242  0.5126226944118887  1.0000
  C   C54       1.0  0.24366856102207898  0.73141363513203  0.48737730533691065  1.0000
  N   N1        1.0  0.839186340919174  0.7178052288486558  0.14989361872224893  1.0000
  N   N2        1.0  0.16081365909415127  0.21780522982385017  0.8501063810265503  1.0000
  N   N3        1.0  0.5820215371273536  0.4214204881701045  0.3375184993416512  1.0000
  N   N4        1.0  0.4179784628859716  0.9214204892517716  0.6624815004071481  1.0000
  N   N5        1.0  0.7172592419772963  0.3644714491799352  0.5629413686154117  1.0000
  N   N6        1.0  0.28274075804712484  0.8644714482047408  0.4370586316024219  1.0000
  O   O1        1.0  0.49920687081802967  0.526302981021322  0.21231374962660818  1.0000
  O   O2        1.0  0.5007931292063915  0.026302981996516258  0.7876862505912253  1.0000
  O   O3        1.0  0.34933054518341833  0.7694212172657621  0.17305771405803264  1.0000
  O   O4        1.0  0.6506694548299069  0.26942121824095633  0.8269422856907666  1.0000
  O   O5        1.0  0.668075551444941  0.016617228258524342  0.9668645678591254  1.0000
  O   O6        1.0  0.33192444856838416  0.51661722728333  0.03313543188967381  1.0000
  O   O7        1.0  0.24242153574226355  0.6620172366464231  0.32824002576745004  1.0000
  O   O8        1.0  0.7575784642821577  0.1620172376216174  0.6717599744503836  1.0000
  O   O9        1.0  0.034530271055630245  0.7021200734633214  0.1450267487219101  1.0000
  O   O10       1.0  0.9654697289687909  0.20212007238165436  0.8549732514959234  1.0000
  O   O11       1.0  0.35685788645718947  0.00010982405278371178  0.29065905417117727  1.0000
  O   O12       1.0  0.6431421135672316  0.5001098251344508  0.7093409460466562  1.0000
  O   O13       1.0  0.6062844685561287  0.8689997106530583  0.3676356649615208  1.0000
  O   O14       1.0  0.39371553145719657  0.3689997116282524  0.6323643347872785  1.0000
  Cl  Cl1       1.0  0.019138378477459826  0.18737182143672673  0.4367317940004932  1.0000
  Cl  Cl2       1.0  0.9808616215469614  0.6873718225183938  0.5632682062173404  1.0000
