data_image0
_chemical_formula_structural       H42C54N18O4S4
_chemical_formula_sum              "H42 C54 N18 O4 S4"
_cell_length_a       8.781558647991536
_cell_length_b       12.616774440291296
_cell_length_c       13.148004296207326
_cell_angle_alpha    66.01440295485632
_cell_angle_beta     73.73240846796527
_cell_angle_gamma    88.79605346844437

_space_group_name_H-M_alt    "P 1"
_space_group_IT_number       1

loop_
  _space_group_symop_operation_xyz
  'x, y, z'

loop_
  _atom_site_type_symbol
  _atom_site_label
  _atom_site_symmetry_multiplicity
  _atom_site_fract_x
  _atom_site_fract_y
  _atom_site_fract_z
  _atom_site_occupancy
  H   H1        1.0  0.11101437184830844  0.7928112733098683  0.19314483719089007  1.0000
  H   H2        1.0  0.8889856272128519  0.20718872713852332  0.8068551630981557  1.0000
  H   H3        1.0  0.2947518594770048  0.4368090539540878  0.6873217745963861  1.0000
  H   H4        1.0  0.7052481407713492  0.5631909465011237  0.3126782254681317  1.0000
  H   H5        1.0  0.428850080819387  0.34915809590015806  0.6448655641908367  1.0000
  H   H6        1.0  0.5711499193119387  0.6508419036826698  0.3551344362355582  1.0000
  H   H7        1.0  0.6946740228152188  0.9604804213977266  0.26588034297042007  1.0000
  H   H8        1.0  0.3053259773165464  0.03951957818547025  0.7341196566951771  1.0000
  H   H9        1.0  0.82288604012764  0.7805315744806736  0.2279335254413878  1.0000
  H   H10       1.0  0.17711396000368582  0.21946842510215428  0.772066474985007  1.0000
  H   H11       1.0  0.18033266290989308  0.28161051992228914  0.09921913924430216  1.0000
  H   H12       1.0  0.8196673361517067  0.7183894805264716  0.900780860283946  1.0000
  H   H13       1.0  0.18550527039181394  0.4002629076773167  0.8948557978016957  1.0000
  H   H14       1.0  0.8144947285523183  0.5997370918986914  0.10514420284922735  1.0000
  H   H15       1.0  0.5540710430499687  0.20480793891962126  0.7812226927406781  1.0000
  H   H16       1.0  0.4459289570817966  0.7951920606635756  0.21877730692491915  1.0000
  H   H17       1.0  0.5467300129536298  0.08820371685238412  0.9831585478204758  1.0000
  H   H18       1.0  0.4532699871781355  0.9117962827308129  0.016841451845121463  1.0000
  H   H19       1.0  0.374324054649135  0.8282045527839267  0.36779635578032055  1.0000
  H   H20       1.0  0.6256759455992191  0.17179544767128485  0.6322036442841972  1.0000
  H   H21       1.0  0.30987186905709263  0.9479256433015671  0.4809815086322185  1.0000
  H   H22       1.0  0.6901281310742333  0.05207435628126062  0.5190184917941766  1.0000
  H   H23       1.0  0.41797779110973277  0.8986434260089845  0.6539371191438949  1.0000
  H   H24       1.0  0.5820222090220324  0.10135657357421246  0.3460628805217024  1.0000
  H   H25       1.0  0.573560750669252  0.7280360232947356  0.7051446150842807  1.0000
  H   H26       1.0  0.42643924946251316  0.2719639762884613  0.2948553845813166  1.0000
  H   H27       1.0  0.8747213226523213  0.42623485516465415  0.2085134899445266  1.0000
  H   H28       1.0  0.12527867747944385  0.5737651444185425  0.7914865097210707  1.0000
  H   H29       1.0  0.04123591462333032  0.2586630649630472  0.25863831893505784  1.0000
  H   H30       1.0  0.9587640855084348  0.7413369346201496  0.7413616807305395  1.0000
  H   H31       1.0  0.10023753986221864  0.185467267353738  0.44845014652771836  1.0000
  H   H32       1.0  0.8997624603865748  0.8145327331018425  0.5515498527760018  1.0000
  H   H33       1.0  0.9832721262329339  0.28047220113808924  0.585151363605045  1.0000
  H   H34       1.0  0.016727872711198362  0.7195277984379188  0.4148486370458781  1.0000
  H   H35       1.0  0.8961979368813706  0.16812453284876677  0.015691169554193352  1.0000
  H   H36       1.0  0.10380206336698339  0.8318754676064449  0.9843088305103244  1.0000
  H   H37       1.0  0.7892728772702956  0.25031272115870984  0.16199727760230379  1.0000
  H   H38       1.0  0.21072712179130423  0.749687279290051  0.8380027219259444  1.0000
  H   H39       1.0  0.6560379997914949  0.43600354084719956  0.10207305727175009  1.0000
  H   H40       1.0  0.34396199915263737  0.5639964587288085  0.8979269433791728  1.0000
  H   H41       1.0  0.6385378868742841  0.529141013005255  0.8968797933859323  1.0000
  H   H42       1.0  0.36146211325704175  0.47085898657757297  0.10312020704046271  1.0000
  C   C1        1.0  0.11244045234996407  0.9447271624793567  0.22682308439721563  1.0000
  C   C2        1.0  0.8875595477818011  0.055272837103840226  0.7731769152683816  1.0000
  C   C3        1.0  0.8175873139889801  0.9407144963128261  0.25521470761677545  1.0000
  C   C4        1.0  0.18241268625937385  0.059285504142385356  0.7447852924477424  1.0000
  C   C5        1.0  0.8834550181598991  0.8517850630864225  0.23254928333775463  1.0000
  C   C6        1.0  0.11654498197142678  0.14821493649640535  0.7674507170886402  1.0000
  C   C7        1.0  0.36237648163966324  0.17714612867977694  0.054865714028649204  1.0000
  C   C8        1.0  0.6376235173044691  0.8228538708962311  0.9451342866222736  1.0000
  C   C9        1.0  0.2618438301842747  0.26580718493028005  0.028828871642145315  1.0000
  C   C10       1.0  0.7381561699474906  0.7341928146529169  0.971171128023452  1.0000
  C   C11       1.0  0.26627538971653775  0.3330496568141586  0.9141225987481789  1.0000
  C   C12       1.0  0.7337246105322556  0.6669503436414219  0.0858774005555412  1.0000
  C   C13       1.0  0.3705992190776145  0.3129299840079013  0.821103201251728  1.0000
  C   C14       1.0  0.6294007811711789  0.6870700164476793  0.17889679805199207  1.0000
  C   C15       1.0  0.4713505574859182  0.2225522024866916  0.849867609004044  1.0000
  C   C16       1.0  0.5286494427624358  0.77744779796852  0.15013239106047382  1.0000
  C   C17       1.0  0.4674156814353488  0.15636594477166513  0.963958340411573  1.0000
  C   C18       1.0  0.5325843186964164  0.8436340548115315  0.0360416592540244  1.0000
  C   C19       1.0  0.6458732549942461  0.5854998741227492  0.5951979720358596  1.0000
  C   C20       1.0  0.35412674513707976  0.4145001254600787  0.4048020283905355  1.0000
  C   C21       1.0  0.7904821631459235  0.4511605099799686  0.551087834650041  1.0000
  C   C22       1.0  0.20951783710243058  0.5488394904752429  0.44891216541447676  1.0000
  C   C23       1.0  0.7411290644341182  0.4481927005022233  0.7312633463024859  1.0000
  C   C24       1.0  0.258870935697647  0.5518072990809735  0.2687366533631113  1.0000
  C   C25       1.0  0.5540549459440127  0.6880403557773619  0.5640612919259058  1.0000
  C   C26       1.0  0.4459450541873131  0.31195964380546587  0.4359387085004893  1.0000
  C   C27       1.0  0.4159664991657581  0.8069092377011252  0.4439931541792349  1.0000
  C   C28       1.0  0.5840335009660071  0.1930907618820717  0.5560068454863625  1.0000
  C   C29       1.0  0.3793745780909097  0.8745127215981479  0.5078705290278571  1.0000
  C   C30       1.0  0.6206254221574443  0.12548727885706354  0.49212947103666077  1.0000
  C   C31       1.0  0.4370735377321759  0.8470220227056116  0.6030122261155871  1.0000
  C   C32       1.0  0.5629264613289847  0.1529779777427802  0.39698777417345854  1.0000
  C   C33       1.0  0.5249408775405757  0.7516909017718323  0.6322227658333299  1.0000
  C   C34       1.0  0.47505912270821765  0.2483090986837483  0.36777723347039015  1.0000
  C   C35       1.0  0.8665785156480661  0.3995769330998131  0.4680377768458747  1.0000
  C   C36       1.0  0.1334214844832597  0.6004230664830148  0.5319622235805201  1.0000
  C   C37       1.0  0.9006371517793732  0.3908820628502124  0.2921196038003204  1.0000
  C   C38       1.0  0.09936284835195275  0.6091179367326154  0.7078803966260744  1.0000
  C   C39       1.0  0.9935362078517225  0.29802022908178805  0.31904443532862997  1.0000
  C   C40       1.0  0.006463792280042848  0.7019797705014088  0.6809555643369675  1.0000
  C   C41       1.0  0.02607336829112693  0.25671269898433985  0.42547760938765694  1.0000
  C   C42       1.0  0.9739266306534448  0.7432873005920373  0.5745223905024683  1.0000
  C   C43       1.0  0.9618603179872829  0.30863834571607346  0.5010687691279406  1.0000
  C   C44       1.0  0.03813968226151057  0.6913616547395071  0.4989312301757796  1.0000
  C   C45       1.0  0.7557805327410013  0.39624939227292694  0.8515788124523351  1.0000
  C   C46       1.0  0.24421946739076392  0.60375060731027  0.14842118721326217  1.0000
  C   C47       1.0  0.8386314641223811  0.24867114407219704  0.9923532754540747  1.0000
  C   C48       1.0  0.16136853600894485  0.751328855510631  0.007646724972320214  1.0000
  C   C49       1.0  0.7793894018670092  0.2949522015073257  0.07414176800561458  1.0000
  C   C50       1.0  0.22061059838178426  0.7050477989482549  0.9258582312981054  1.0000
  C   C51       1.0  0.7056479938364086  0.3971881723548564  0.04092084723287665  1.0000
  C   C52       1.0  0.29435200641194526  0.602811828100355  0.9590791528316409  1.0000
  C   C53       1.0  0.6945005041695143  0.4491129506424152  0.9276313444289418  1.0000
  C   C54       1.0  0.30549949607927906  0.5508870498131654  0.07236865487477823  1.0000
  N   N1        1.0  0.045676080982004055  0.8548056410032175  0.2168206611142834  1.0000
  N   N2        1.0  0.95432391926635  0.14519435945199388  0.7831793389502344  1.0000
  N   N3        1.0  0.26637641738923906  0.9581248921627344  0.21427832628191215  1.0000
  N   N4        1.0  0.7336235828591149  0.04187510829247709  0.7857216737826056  1.0000
  N   N5        1.0  0.374170458201122  0.37639225064824205  0.7090046765070142  1.0000
  N   N6        1.0  0.6258295408600383  0.6236077498001498  0.2909953237820317  1.0000
  N   N7        1.0  0.7103649599485113  0.5443394046065347  0.5148846584901019  1.0000
  N   N8        1.0  0.2896350401828146  0.455660594976293  0.4851153419362932  1.0000
  N   N9        1.0  0.808203731313028  0.39893878618867185  0.6585065433370104  1.0000
  N   N10       1.0  0.19179626881873718  0.6010612133945249  0.34149345632858674  1.0000
  N   N11       1.0  0.6599475222979709  0.5417825492244845  0.7036311959400628  1.0000
  N   N12       1.0  0.3400524778333549  0.4582174503583433  0.2963688044863321  1.0000
  N   N13       1.0  0.502076544197674  0.7162058746262482  0.4699828933754503  1.0000
  N   N14       1.0  0.4979234547468977  0.2837941249501291  0.5300171065146749  1.0000
  N   N15       1.0  0.8381096627055798  0.4415191853882926  0.3638908825520882  1.0000
  N   N16       1.0  0.1618903374261853  0.5584808141949043  0.6361091171135091  1.0000
  N   N17       1.0  0.8273117439645669  0.2973798887324066  0.8837930714884232  1.0000
  N   N18       1.0  0.17268825628378714  0.7026201117228049  0.11620692857609446  1.0000
  O   O1        1.0  0.24177389880144673  0.12628507595408894  0.27670548234599224  1.0000
  O   O2        1.0  0.7582261013303185  0.873714923629108  0.7232945173196049  1.0000
  O   O3        1.0  0.5050571523297948  0.059659578302166394  0.2098989169184839  1.0000
  O   O4        1.0  0.4949428479185592  0.940340422153045  0.7901010831460338  1.0000
  S   S1        1.0  0.9604009431565217  0.029771725996479082  0.260616596591338  1.0000
  S   S2        1.0  0.039599056975243435  0.9702282735867176  0.7393834030742592  1.0000
  S   S3        1.0  0.3460729143565504  0.080988243346745  0.1988301716726845  1.0000
  S   S4        1.0  0.6539270857752149  0.9190117562364519  0.8011698279929127  1.0000
