data_image0
_chemical_formula_structural       H22C36F10
_chemical_formula_sum              "H22 C36 F10"
_cell_length_a       6.032513805008451
_cell_length_b       8.077388627184268
_cell_length_c       14.38803953482117
_cell_angle_alpha    84.52181556670398
_cell_angle_beta     88.41138663007834
_cell_angle_gamma    84.65628904335968

_space_group_name_H-M_alt    "P 1"
_space_group_IT_number       1

loop_
  _space_group_symop_operation_xyz
  'x, y, z'

loop_
  _atom_site_type_symbol
  _atom_site_label
  _atom_site_symmetry_multiplicity
  _atom_site_fract_x
  _atom_site_fract_y
  _atom_site_fract_z
  _atom_site_occupancy
  H   H1        1.0  0.4793990374974789  0.8604054653886442  0.6030810565252676  1.0000
  H   H2        1.0  0.5206009618907065  0.13959453535421795  0.39691894367022856  1.0000
  H   H3        1.0  0.08472647355283114  0.12305595803563572  0.6321218541167016  1.0000
  H   H4        1.0  0.9152735276575195  0.8769440414687442  0.36787814612646513  1.0000
  H   H5        1.0  0.19836120834839524  0.8692468547943596  0.4850347624175463  1.0000
  H   H6        1.0  0.8016387912050242  0.13075314469969246  0.5149652378385693  1.0000
  H   H7        1.0  0.20312883910635082  0.6420024237590634  0.7705347463673903  1.0000
  H   H8        1.0  0.7968711604470687  0.3579975757349886  0.22946525388872543  1.0000
  H   H9        1.0  0.3720269068453472  0.6894664612127519  0.9182301572695017  1.0000
  H   H10       1.0  0.6279730925581595  0.3105335395381  0.0817698422304141  1.0000
  H   H11       1.0  0.7579939305766288  0.568911526242775  0.9555382184134539  1.0000
  H   H12       1.0  0.2420060688115567  0.43108847450008725  0.044461781782042256  1.0000
  H   H13       1.0  0.9741232962859135  0.400591684756486  0.8421540109959665  1.0000
  H   H14       1.0  0.025876703267505935  0.599408314737566  0.1578459892601491  1.0000
  H   H15       1.0  0.8056536525761538  0.35180673116807515  0.693192500433425  1.0000
  H   H16       1.0  0.19434634697726558  0.6481932683259769  0.3068074998226906  1.0000
  H   H17       1.0  0.5026075390751834  0.3750924957990854  0.5907935703831074  1.0000
  H   H18       1.0  0.4973924621351674  0.6249075037052945  0.4092064298600594  1.0000
  H   H19       1.0  0.08320273209519578  0.6001150015246565  0.6401607884950683  1.0000
  H   H20       1.0  0.916797267473545  0.3998849979773852  0.35983921106546707  1.0000
  H   H21       1.0  0.20924458918704272  0.3865390079680475  0.474856905773653  1.0000
  H   H22       1.0  0.7907554103663768  0.6134609915260044  0.5251430944824627  1.0000
  C   C1        1.0  0.373405076900017  0.09921906991279367  0.7888268626488655  1.0000
  C   C2        1.0  0.6265949226534026  0.9007809295812583  0.21117313760725012  1.0000
  C   C3        1.0  0.47040930489823196  0.12666410281138263  0.8716847609544949  1.0000
  C   C4        1.0  0.5295906963121189  0.8733358966929973  0.1283152392886718  1.0000
  C   C5        1.0  0.6836771165779275  0.05412269081382167  0.8929197669464298  1.0000
  C   C6        1.0  0.3163228829754918  0.9458773086802302  0.10708023330968588  1.0000
  C   C7        1.0  0.794353576248664  0.9502203572736774  0.831315066857011  1.0000
  C   C8        1.0  0.20564642313952125  0.04977964346918483  0.16868493333848528  1.0000
  C   C9        1.0  0.6934324779538419  0.924717866260936  0.7489156868934056  1.0000
  C   C10       1.0  0.3065675232565088  0.07528213324344388  0.2510843133497612  1.0000
  C   C11       1.0  0.4796504452280473  0.9978266047409411  0.7234964432588872  1.0000
  C   C12       1.0  0.5203495543253721  0.00217339475311092  0.27650355699722845  1.0000
  C   C13       1.0  0.38285538697604876  0.9576000601516654  0.6385622733099814  1.0000
  C   C14       1.0  0.6171446125773707  0.04239993934238661  0.36143772694613435  1.0000
  C   C15       1.0  0.18613891761408474  0.024048282379017558  0.6003392995129108  1.0000
  C   C16       1.0  0.8138610817741007  0.9759517183638448  0.39966070068258536  1.0000
  C   C17       1.0  0.10003924115245653  0.968731548442278  0.5185391208922022  1.0000
  C   C18       1.0  0.89996075825105  0.031268452308573814  0.48146087860771364  1.0000
  C   C19       1.0  0.37227657169309236  0.588585735901113  0.7852699728377158  1.0000
  C   C20       1.0  0.6277234278603272  0.41141426359293903  0.21473002741839975  1.0000
  C   C21       1.0  0.46723990441313495  0.6154313167697026  0.8688461230969002  1.0000
  C   C22       1.0  0.5327600967972158  0.3845686827346772  0.13115387714626656  1.0000
  C   C23       1.0  0.6842364603121133  0.5481037629749539  0.8898844381678794  1.0000
  C   C24       1.0  0.31576353909139326  0.45189623777589794  0.11011556133203654  1.0000
  C   C25       1.0  0.8054760283663939  0.4536511500806062  0.8262219181447937  1.0000
  C   C26       1.0  0.194523972859278  0.5463488494317632  0.17377808140279277  1.0000
  C   C27       1.0  0.7103719347360363  0.426252038829713  0.7425175283278224  1.0000
  C   C28       1.0  0.28962806483270437  0.5737479606723286  0.257482471232713  1.0000
  C   C29       1.0  0.49182414007582165  0.49283245021174427  0.7200412425006726  1.0000
  C   C30       1.0  0.508175859492919  0.5071675492902973  0.27995875705986284  1.0000
  C   C31       1.0  0.3973127700408188  0.4581876855104737  0.6329141435567492  1.0000
  C   C32       1.0  0.6026872295279219  0.541812313991568  0.36708585600378624  1.0000
  C   C33       1.0  0.19201197912677348  0.5160950133819687  0.6001826399273155  1.0000
  C   C34       1.0  0.807988020426646  0.4839049861120833  0.39981736032880005  1.0000
  C   C35       1.0  0.10394783494986125  0.471699712492189  0.5158274087288901  1.0000
  C   C36       1.0  0.8960521660952555  0.5283002882610011  0.48417259145365715  1.0000
  F   F1        1.0  0.16590681686038955  0.1742961672184688  0.7732698901828126  1.0000
  F   F2        1.0  0.8340931827083511  0.8257038322835727  0.22673010937772275  1.0000
  F   F3        1.0  0.3600000187333108  0.22560911093078306  0.9313364419917634  1.0000
  F   F4        1.0  0.63999998247704  0.7743908885735967  0.0686635582514034  1.0000
  F   F5        1.0  0.7822075577396798  0.08530509543909211  0.9713494943123067  1.0000
  F   F6        1.0  0.21779244164850572  0.9146949053037703  0.028650505883189414  1.0000
  F   F7        1.0  0.9971529715351415  0.873399190729145  0.8527019750761481  1.0000
  F   F8        1.0  0.002847028018277936  0.1266008087649071  0.14729802517996748  1.0000
  F   F9        1.0  0.805898790885906  0.8204055233872324  0.6921925108577347  1.0000
  F   F10       1.0  0.19410120866751351  0.1795944761068197  0.30780748939838093  1.0000
