data_image0
_chemical_formula_structural       H24C48F8I4
_chemical_formula_sum              "H24 C48 F8 I4"
_cell_length_a       19.01298777565914
_cell_length_b       5.932834036119191
_cell_length_c       8.832983204794536
_cell_angle_alpha    90.0
_cell_angle_beta     92.30864662697272
_cell_angle_gamma    90.0

_space_group_name_H-M_alt    "P 1"
_space_group_IT_number       1

loop_
  _space_group_symop_operation_xyz
  'x, y, z'

loop_
  _atom_site_type_symbol
  _atom_site_label
  _atom_site_symmetry_multiplicity
  _atom_site_fract_x
  _atom_site_fract_y
  _atom_site_fract_z
  _atom_site_occupancy
  H   H1        1.0  0.12459633678910909  0.11775705265758497  0.16683957081438427  1.0000
  H   H2        1.0  0.8754036629588744  0.6177570529846469  0.33316042905040766  1.0000
  H   H3        1.0  0.8754036630398347  0.8822429463110038  0.833160428892528  1.0000
  H   H4        1.0  0.12459633688355204  0.382242947669477  0.6668395717894224  1.0000
  H   H5        1.0  0.2308707611382885  0.309596041085532  0.0807069324044723  1.0000
  H   H6        1.0  0.7691292391359058  0.8095960414125939  0.4192930674769485  1.0000
  H   H7        1.0  0.769129239216866  0.6904039578830568  0.9192930673190688  1.0000
  H   H8        1.0  0.23087076069303794  0.19040395924152995  0.5807069322299637  1.0000
  H   H9        1.0  0.26644849377140734  0.6857173494543154  0.18763208300521658  1.0000
  H   H10       1.0  0.7335515059765761  0.18571734912725343  0.3123679168595753  1.0000
  H   H11       1.0  0.7335515060575364  0.3142826511998085  0.8123679167016956  1.0000
  H   H12       1.0  0.2664484938523676  0.8142826515268705  0.6876320828473369  1.0000
  H   H13       1.0  0.19356629858886515  0.8731998297037686  0.37545733207807164  1.0000
  H   H14       1.0  0.8064337011591183  0.3731998293767066  0.12454266778672037  1.0000
  H   H15       1.0  0.8064337012400786  0.12680017095035534  0.6245426676288407  1.0000
  H   H16       1.0  0.1935662986833081  0.6268001712774173  0.8754573330531098  1.0000
  H   H17       1.0  0.08755670237348452  0.8762481907214367  0.528101553810598  1.0000
  H   H18       1.0  0.9124432975364194  0.3762481903943747  0.9718984457384343  1.0000
  H   H19       1.0  0.9124432974554593  0.12375180993268727  0.4718984458963142  1.0000
  H   H20       1.0  0.08755670229252425  0.6237518085742141  0.028101553968477803  1.0000
  H   H21       1.0  0.9813414743679361  0.8804993563273598  0.6793628286092395  1.0000
  H   H22       1.0  0.018658525555450695  0.38049935768583293  0.820637172072711  1.0000
  H   H23       1.0  0.018658525461007727  0.11950064264122905  0.3206371710976728  1.0000
  H   H24       1.0  0.9813414742869757  0.619500642968291  0.1793628287671192  1.0000
  C   C1        1.0  0.13954136860130517  0.28212779926250625  0.21271882411835255  1.0000
  C   C2        1.0  0.8604586316728892  0.7821277995895681  0.2872811757630682  1.0000
  C   C3        1.0  0.8604586312276387  0.7178722013916176  0.7872811755885597  1.0000
  C   C4        1.0  0.13954136868226538  0.21787220106455568  0.7127188239604728  1.0000
  C   C5        1.0  0.19908416346737004  0.38846686186886253  0.16622075835848651  1.0000
  C   C6        1.0  0.8009158368068243  0.8884668621959244  0.3337792415229343  1.0000
  C   C7        1.0  0.8009158368877846  0.6115331387852614  0.8337792413650547  1.0000
  C   C8        1.0  0.19908416356181302  0.11153313845819943  0.6662207593335248  1.0000
  C   C9        1.0  0.21904443823070946  0.6039836321367831  0.2260829859953699  1.0000
  C   C10       1.0  0.7809555620569676  0.10398363180972117  0.27391701501896887  1.0000
  C   C11       1.0  0.7809555621379278  0.3960163685173408  0.7739170148610891  1.0000
  C   C12       1.0  0.21904443831166973  0.8960163671588676  0.7260829858374902  1.0000
  C   C13       1.0  0.17850659418907996  0.7084726733312512  0.33026770764973523  1.0000
  C   C14       1.0  0.8214934060851143  0.20847267300418917  0.1697322922316856  1.0000
  C   C15       1.0  0.8214934061660746  0.2915273273228728  0.6697322920738058  1.0000
  C   C16       1.0  0.17850659374382943  0.7915273259643997  0.8302677074752266  1.0000
  C   C17       1.0  0.11548032244332403  0.6058317202399137  0.37986164044168375  1.0000
  C   C18       1.0  0.8845196778308702  0.10583171991285174  0.12013835943973702  1.0000
  C   C19       1.0  0.8845196773856197  0.3941682804142102  0.6201383592652284  1.0000
  C   C20       1.0  0.11548032253776702  0.894168279055737  0.879861641416722  1.0000
  C   C21       1.0  0.07249911397138359  0.7112886496249229  0.4829913873299993  1.0000
  C   C22       1.0  0.9275008857765998  0.21128864929786081  0.017008612534792647  1.0000
  C   C23       1.0  0.9275008858575602  0.28871135102920115  0.5170086123769129  1.0000
  C   C24       1.0  0.07249911405234385  0.788711351356263  0.9829913871721195  1.0000
  C   C25       1.0  0.009921603758702663  0.6102606558615795  0.5299737408528017  1.0000
  C   C26       1.0  0.9900783961646838  0.11026065722005272  0.9700262598291487  1.0000
  C   C27       1.0  0.9900783966099346  0.38973934310700925  0.4700262600036573  1.0000
  C   C28       1.0  0.009921603677742407  0.8897393434340711  0.029973741010681502  1.0000
  C   C29       1.0  0.966214219501313  0.7157121072575193  0.6339298510024043  1.0000
  C   C30       1.0  0.033785780934801786  0.21571210693045736  0.866070148563257  1.0000
  C   C31       1.0  0.03378578085384153  0.2842878933966046  0.3660701487211368  1.0000
  C   C32       1.0  0.9662142194203528  0.7842878937236666  0.133929851160284  1.0000
  C   C33       1.0  0.904405700121694  0.6140194766653024  0.6800986177448907  1.0000
  C   C34       1.0  0.09559430031442089  0.11401947633824049  0.8199013818207707  1.0000
  C   C35       1.0  0.09559430023346062  0.38598052230328633  0.31990138197865037  1.0000
  C   C36       1.0  0.9044057000407336  0.8859805226303482  0.1800986179027704  1.0000
  C   C37       1.0  0.436736005489964  0.09436753440118517  0.4394895093167864  1.0000
  C   C38       1.0  0.5632639947842303  0.5943675347282471  0.06051049056463448  1.0000
  C   C39       1.0  0.5632639948651905  0.9056324645674036  0.5605104904067547  1.0000
  C   C40       1.0  0.4367360050447134  0.4056324659258768  0.9394895091422778  1.0000
  C   C41       1.0  0.5010505695860117  0.20350601628994291  0.42431926423150984  1.0000
  C   C42       1.0  0.49894943016197174  0.7035060149314698  0.07568073563328213  1.0000
  C   C43       1.0  0.4989494302429319  0.796493984364181  0.5756807354754023  1.0000
  C   C44       1.0  0.5010505696804547  0.296493984037119  0.9243192652065481  1.0000
  C   C45       1.0  0.5634844855327001  0.11082683857276711  0.48355339558659455  1.0000
  C   C46       1.0  0.4365155142152833  0.610826838899829  0.016446604278197455  1.0000
  C   C47       1.0  0.4365155142962436  0.8891731620813568  0.5164466041203177  1.0000
  C   C48       1.0  0.5634844856136605  0.38917316175429484  0.9835533954287148  1.0000
  F   F1        1.0  0.5041270388437907  0.4013637640127914  0.34878971543703635  1.0000
  F   F2        1.0  0.49587296143040344  0.9013637643398534  0.15121028444438445  1.0000
  F   F3        1.0  0.4958729609851529  0.5986362366413325  0.6512102842698758  1.0000
  F   F4        1.0  0.5041270389247511  0.09863623631427054  0.8487897152791566  1.0000
  F   F5        1.0  0.624509305601505  0.22317628673565668  0.4655488719538668  1.0000
  F   F6        1.0  0.37549069414647845  0.7231762870627186  0.03445112791092515  1.0000
  F   F7        1.0  0.37549069422743875  0.7768237122329321  0.5344511277530454  1.0000
  F   F8        1.0  0.6245093056824652  0.2768237119058702  0.9655488717959871  1.0000
  I   I1        1.0  0.3438820357498197  0.22832427837237848  0.34428263107009377  1.0000
  I   I2        1.0  0.6561179645243747  0.7283242786994405  0.15571736881132706  1.0000
  I   I3        1.0  0.656117964079124  0.7716757205962103  0.6557173686368185  1.0000
  I   I4        1.0  0.3438820358307799  0.2716757202691484  0.844282630912214  1.0000
