data_image0
_chemical_formula_structural       H12C32F8I4
_chemical_formula_sum              "H12 C32 F8 I4"
_cell_length_a       5.701799087578356
_cell_length_b       10.110302498742348
_cell_length_c       13.187527911104869
_cell_angle_alpha    103.78913109368098
_cell_angle_beta     93.12899811240707
_cell_angle_gamma    96.9950433431523

_space_group_name_H-M_alt    "P 1"
_space_group_IT_number       1

loop_
  _space_group_symop_operation_xyz
  'x, y, z'

loop_
  _atom_site_type_symbol
  _atom_site_label
  _atom_site_symmetry_multiplicity
  _atom_site_fract_x
  _atom_site_fract_y
  _atom_site_fract_z
  _atom_site_occupancy
  H   H1        1.0  0.5382302322208345  0.8587984104464284  0.12708812323514265  1.0000
  H   H2        1.0  0.46176976736178016  0.14120158893524562  0.8729118764538627  1.0000
  H   H3        1.0  0.5292144663005767  0.609613416643344  0.06892637657447884  1.0000
  H   H4        1.0  0.47078553518212823  0.3903865829982961  0.9310736239024238  1.0000
  H   H5        1.0  0.8080007849943291  0.5093737411223779  0.9420000889792955  1.0000
  H   H6        1.0  0.1919992147323094  0.49062625851104197  0.05799991149344541  1.0000
  H   H7        1.0  0.13532937105668938  0.5392028091561275  0.8363600223330468  1.0000
  H   H8        1.0  0.8646706287293717  0.4607971912226504  0.1636399773578796  1.0000
  H   H9        1.0  0.44259266953824616  0.6929600306322381  0.7760607518839376  1.0000
  H   H10       1.0  0.557407331800435  0.3070399687576561  0.2239392478092292  1.0000
  H   H11       1.0  0.4628513388831043  0.9432291181225889  0.8341204115253577  1.0000
  H   H12       1.0  0.5371486609029568  0.05677088225618895  0.16587958816556886  1.0000
  C   C1        1.0  0.3115743162770141  0.7545421438383516  0.3636530063945844  1.0000
  C   C2        1.0  0.6884256854091374  0.24545785680039245  0.6363469940842394  1.0000
  C   C3        1.0  0.3211694438502786  0.8372701929797983  0.465305873681596  1.0000
  C   C4        1.0  0.6788305559357825  0.1627298073989796  0.5346941260093305  1.0000
  C   C5        1.0  0.478580191132612  0.8219945538310562  0.5448099333234693  1.0000
  C   C6        1.0  0.5214198086534493  0.17800544654772174  0.45519006636745724  1.0000
  C   C7        1.0  0.6315801169642804  0.7229203973851658  0.5257545008264911  1.0000
  C   C8        1.0  0.36841988282178073  0.27707960299361223  0.4742454988644355  1.0000
  C   C9        1.0  0.6207566339932168  0.6394489300435073  0.4242487192581452  1.0000
  C   C10       1.0  0.3792433659368681  0.36055107058701624  0.5757512812165169  1.0000
  C   C11       1.0  0.4637405807653064  0.6550471965395773  0.3445051266569261  1.0000
  C   C12       1.0  0.5362594207173986  0.3449528031020626  0.6554948738199764  1.0000
  C   C13       1.0  0.9909920506420954  0.8536294942495636  0.9658636011227509  1.0000
  C   C14       1.0  0.009007948940519275  0.14637050513211053  0.034136398566254465  1.0000
  C   C15       1.0  0.8263931758554903  0.9096622445566225  0.03688786351163593  1.0000
  C   C16       1.0  0.17360682562721463  0.0903377550850176  0.9631121369652665  1.0000
  C   C17       1.0  0.6646726644030672  0.8193139748313538  0.07254784310796464  1.0000
  C   C18       1.0  0.33532733552701777  0.1806860257991699  0.9274521573666975  1.0000
  C   C19       1.0  0.6568877904764953  0.6758794140478093  0.03843913868005395  1.0000
  C   C20       1.0  0.3431122091061194  0.32412058533386484  0.9615608610089513  1.0000
  C   C21       1.0  0.8113429813552978  0.6202593413305457  0.9686789568940628  1.0000
  C   C22       1.0  0.18865701822731684  0.3797406580511283  0.03132104279494261  1.0000
  C   C23       1.0  0.9815369633333657  0.7070651427102093  0.931503064439369  1.0000
  C   C24       1.0  0.018463036393272663  0.2929348569232106  0.06849693603337188  1.0000
  C   C25       1.0  0.14448324247424338  0.6507060444101401  0.8616147050678727  1.0000
  C   C26       1.0  0.8555167571083714  0.34929395497153404  0.13838529462113255  1.0000
  C   C27       1.0  0.31435420332048436  0.7363723065746447  0.828104273007827  1.0000
  C   C28       1.0  0.6856457962621304  0.2636276928070294  0.1718957266811784  1.0000
  C   C29       1.0  0.32551609249372954  0.8798630061744257  0.8621636190575545  1.0000
  C   C30       1.0  0.6744839072923317  0.12013699420435227  0.13783638063337214  1.0000
  C   C31       1.0  0.16636656286487114  0.9405455356816068  0.9291561579653539  1.0000
  C   C32       1.0  0.8336334369211901  0.059454464697171125  0.0708438417255726  1.0000
  F   F1        1.0  0.4827469163671274  0.9072153499971514  0.6412412776620643  1.0000
  F   F2        1.0  0.5172530832154874  0.09278464938452269  0.3587587220269409  1.0000
  F   F3        1.0  0.7651040168220673  0.5415173326434654  0.4011688247003519  1.0000
  F   F4        1.0  0.23489598276054732  0.4584826667382088  0.5988311749886535  1.0000
  F   F5        1.0  0.46213500284806797  0.5714546053174487  0.24740148809058943  1.0000
  F   F6        1.0  0.5378649969379933  0.42854539506132927  0.7525985116003372  1.0000
  F   F7        1.0  0.17819112912607896  0.9353576808909055  0.4882646335010613  1.0000
  F   F8        1.0  0.8218088706599821  0.06464231948787236  0.5117353661898653  1.0000
  I   I1        1.0  0.07462570560189666  0.7799536678628669  0.2458176207532352  1.0000
  I   I2        1.0  0.9253742959402311  0.22004633252413128  0.754182378941853  1.0000
  I   I3        1.0  0.8712309871439151  0.703661965818754  0.6450216239105362  1.0000
  I   I4        1.0  0.12876901264214594  0.2963380345600239  0.35497837578039027  1.0000
