data_image0
_chemical_formula_structural       H28C28N8O12
_chemical_formula_sum              "H28 C28 N8 O12"
_cell_length_a       7.141594755367403
_cell_length_b       7.967388357528696
_cell_length_c       12.573074114943005
_cell_angle_alpha    81.10769213530429
_cell_angle_beta     84.90507697958434
_cell_angle_gamma    82.58042331167772

_space_group_name_H-M_alt    "P 1"
_space_group_IT_number       1

loop_
  _space_group_symop_operation_xyz
  'x, y, z'

loop_
  _atom_site_type_symbol
  _atom_site_label
  _atom_site_symmetry_multiplicity
  _atom_site_fract_x
  _atom_site_fract_y
  _atom_site_fract_z
  _atom_site_occupancy
  H   H1        1.0  0.44431589572214647  0.7143096752231411  0.3879759756246335  1.0000
  H   H2        1.0  0.5556841042409159  0.28569032555910207  0.6120240246283192  1.0000
  H   H3        1.0  0.46753524438646116  0.8043503864384595  0.24783572434488066  1.0000
  H   H4        1.0  0.5324647555766012  0.1956496143437839  0.7521642759080721  1.0000
  H   H5        1.0  0.6576929968526237  0.7995249037638757  0.33209199024392627  1.0000
  H   H6        1.0  0.34230700328186525  0.2004750957391756  0.6679080101223388  1.0000
  H   H7        1.0  0.7507988722769079  0.031816906297985593  0.04421303779775505  1.0000
  H   H8        1.0  0.24920112768615454  0.9681830944842578  0.9557869624551976  1.0000
  H   H9        1.0  0.7174672064803972  0.07866315430292588  0.4654104482571653  1.0000
  H   H10       1.0  0.28253279366101075  0.9213368452055276  0.5345895513128901  1.0000
  H   H11       1.0  0.89512562951075  0.20947329100893697  0.48371552762361847  1.0000
  H   H12       1.0  0.1048743706237389  0.7905267084941143  0.5162844727426465  1.0000
  H   H13       1.0  0.9412337129909754  0.06149575468048277  0.38882009216670066  1.0000
  H   H14       1.0  0.058766287143513445  0.9385042448225687  0.6111799081995645  1.0000
  H   H15       1.0  0.5890728176108103  0.3312526731806201  7.523259987543264e-05  1.0000
  H   H16       1.0  0.4109271825236786  0.6687473263224313  0.9999247677663896  1.0000
  H   H17       1.0  0.6684571792375487  0.9395484342309718  0.7120806894462349  1.0000
  H   H18       1.0  0.3315428209038591  0.06045156527748163  0.28791931012382044  1.0000
  H   H19       1.0  0.91534378778187  0.537224497656983  0.9458615283783085  1.0000
  H   H20       1.0  0.08465621218119235  0.46277550312526033  0.05413847187464411  1.0000
  H   H21       1.0  0.8528814802627641  0.4401841563309518  0.6231872490426368  1.0000
  H   H22       1.0  0.14711851987172467  0.5598158431720995  0.37681275132362824  1.0000
  H   H23       1.0  0.07762914020784425  0.07803419138642256  0.7663818077784276  1.0000
  H   H24       1.0  0.9223708599335636  0.9219658081220308  0.23361819179162774  1.0000
  H   H25       1.0  0.6992198238938768  0.6602958970279762  0.5138728479477871  1.0000
  H   H26       1.0  0.300780176247531  0.33970410248047733  0.48612715162226827  1.0000
  H   H27       1.0  0.8274034924713739  0.8097706472350757  0.9766755753156531  1.0000
  H   H28       1.0  0.17259650766311488  0.19022935226797558  0.023324425050611972  1.0000
  C   C1        1.0  0.5415277808691552  0.7321078037715011  0.315883403315956  1.0000
  C   C2        1.0  0.4584722192653337  0.2678921957315502  0.6841165970503091  1.0000
  C   C3        1.0  0.7325293994875991  0.12519356285840838  0.09935898112707245  1.0000
  C   C4        1.0  0.26747060064688977  0.874806436644643  0.9006410192391925  1.0000
  C   C5        1.0  0.5862350358068259  0.5376507529794415  0.17950409429528613  1.0000
  C   C6        1.0  0.41376496433458215  0.46234924652901177  0.8204959052747691  1.0000
  C   C7        1.0  0.6542665371887731  0.3689321171144042  0.16114919474892403  1.0000
  C   C8        1.0  0.34573346294571583  0.6310678823886471  0.838850805617341  1.0000
  C   C9        1.0  0.6990533621646301  0.445109622823832  0.3645772206034608  1.0000
  C   C10       1.0  0.30094663780535136  0.5548903779638135  0.6354227788532821  1.0000
  C   C11       1.0  0.7381328862339867  0.24695135970365045  0.23959933245114176  1.0000
  C   C12       1.0  0.2618671137359946  0.7530486410839949  0.760400667005601  1.0000
  C   C13       1.0  0.8326878567045166  0.14917105513127668  0.4252467596590835  1.0000
  C   C14       1.0  0.1673121434299723  0.8508289443717747  0.5747532407071817  1.0000
  C   C15       1.0  0.7913987900369043  0.7515631963238497  0.8373669509822725  1.0000
  C   C16       1.0  0.2086012100975846  0.2484368031792016  0.16263304938399248  1.0000
  C   C17       1.0  0.7318800958285568  0.8083075866928601  0.7334324105574869  1.0000
  C   C18       1.0  0.268119904305932  0.19169241281019128  0.26656758980877826  1.0000
  C   C19       1.0  0.9869661546340016  0.29505525445666464  0.8180788474324528  1.0000
  C   C20       1.0  0.0130338455004872  0.7049447450463867  0.1819211529338122  1.0000
  C   C21       1.0  0.8936664947759018  0.4716009253358514  0.7874056186345041  1.0000
  C   C22       1.0  0.10633350536550618  0.5283990741726021  0.21259438093555114  1.0000
  C   C23       1.0  0.8711092334068127  0.5822697579247994  0.8649127858110097  1.0000
  C   C24       1.0  0.12889076656316878  0.41773024286284605  0.13508721364573317  1.0000
  C   C25       1.0  0.7507720540536726  0.6952738797274078  0.6572415364249105  1.0000
  C   C26       1.0  0.24922794608081628  0.3047261197756436  0.3427584639413547  1.0000
  C   C27       1.0  0.8341780993451792  0.5262843287182511  0.6833325180749634  1.0000
  C   C28       1.0  0.1658219007962286  0.47371567079020227  0.3166674814950919  1.0000
  N   N1        1.0  0.7877692012316198  0.09538023841911243  0.20103791325551224  1.0000
  N   N2        1.0  0.21223079873144252  0.904619762363131  0.7989620869974403  1.0000
  N   N3        1.0  0.6152926643240347  0.5652319041883829  0.28484196883087637  1.0000
  N   N4        1.0  0.38470733563902754  0.43476809659386034  0.7151580314220762  1.0000
  N   N5        1.0  0.653055608908297  0.286507790131847  0.07251104083318369  1.0000
  N   N6        1.0  0.346944391226192  0.7134922093712042  0.9274889595330814  1.0000
  N   N7        1.0  0.7604432568996894  0.28259350031097685  0.34043898108782406  1.0000
  N   N8        1.0  0.23955674306337293  0.7174065004712665  0.6595610191651287  1.0000
  O   O1        1.0  0.7174635188368477  0.4821606929759512  0.45548325042282023  1.0000
  O   O2        1.0  0.28253648112621477  0.517839307806292  0.5445167498301325  1.0000
  O   O3        1.0  0.5086133008092653  0.6552242832239769  0.11492615679037083  1.0000
  O   O4        1.0  0.49138669932522355  0.34477571627907433  0.8850738435758942  1.0000
  O   O5        1.0  0.9973909627464591  0.19466759616744905  0.7421331983316369  1.0000
  O   O6        1.0  0.0026090372166031697  0.8053324046147942  0.25786680192131584  1.0000
  O   O7        1.0  0.05318127673106035  0.2469049715746519  0.907273496488282  1.0000
  O   O8        1.0  0.9468187234103475  0.7530950279338016  0.09272650308177333  1.0000
  O   O9        1.0  0.7686359913787646  0.8643675320546385  0.9094789822600639  1.0000
  O   O10       1.0  0.23136400875572424  0.13563246744841279  0.09052101810620129  1.0000
  O   O11       1.0  0.6863624239843903  0.7557448092404034  0.5580779308170931  1.0000
  O   O12       1.0  0.313637575978672  0.2442551915418398  0.4419220694358596  1.0000
