data_image0
_chemical_formula_structural       H52C56N12O8
_chemical_formula_sum              "H52 C56 N12 O8"
_cell_length_a       4.828270699965917
_cell_length_b       32.16678808482823
_cell_length_c       8.21906731482239
_cell_angle_alpha    90.0
_cell_angle_beta     96.00699056075393
_cell_angle_gamma    90.0

_space_group_name_H-M_alt    "P 1"
_space_group_IT_number       1

loop_
  _space_group_symop_operation_xyz
  'x, y, z'

loop_
  _atom_site_type_symbol
  _atom_site_label
  _atom_site_symmetry_multiplicity
  _atom_site_fract_x
  _atom_site_fract_y
  _atom_site_fract_z
  _atom_site_occupancy
  H   H1        1.0  0.12986334585041567  0.10823960200248238  0.1204396885260989  1.0000
  H   H2        1.0  0.1298633451955529  0.3917603979224677  0.6204396882996052  1.0000
  H   H3        1.0  0.8701366539049669  0.8917603978474179  0.8795603113579384  1.0000
  H   H4        1.0  0.8701366545598297  0.6082396022383122  0.3795603115844322  1.0000
  H   H5        1.0  0.42020696099588406  0.9747260431260877  0.07765186485075252  1.0000
  H   H6        1.0  0.42020696036583277  0.5252739569596424  0.5776518658423808  1.0000
  H   H7        1.0  0.5797930387594985  0.025273957034692273  0.9223481350332849  1.0000
  H   H8        1.0  0.5797930394143613  0.4747260428902579  0.42234813525977855  1.0000
  H   H9        1.0  0.8184043903258318  0.1460129207682776  0.2901633428142046  1.0000
  H   H10       1.0  0.8184043896709691  0.35398707915667255  0.7901633425877109  1.0000
  H   H11       1.0  0.18159560942955072  0.8539870790816226  0.7098366570698328  1.0000
  H   H12       1.0  0.18159561008441352  0.6460129210041073  0.20983665729632653  1.0000
  H   H13       1.0  0.6033973173947198  0.030052674747963175  0.509472461569137  1.0000
  H   H14       1.0  0.6033973159671604  0.4699473251769869  0.00947246168210649  1.0000
  H   H15       1.0  0.39660268236066276  0.9699473251019372  0.4905275383149005  1.0000
  H   H16       1.0  0.3966026837882222  0.530052674983793  0.990527538201931  1.0000
  H   H17       1.0  0.9111845257412915  0.9923997986934998  0.3370144300503105  1.0000
  H   H18       1.0  0.911184527168851  0.5076002013922303  0.8370144299373409  1.0000
  H   H19       1.0  0.08881547401409097  0.0076002011564004586  0.662985569833727  1.0000
  H   H20       1.0  0.08881547258653154  0.49239979876854967  0.16298556994669652  1.0000
  H   H21       1.0  0.49190654750472385  0.14264096676049906  0.48555522673234963  1.0000
  H   H22       1.0  0.4919065489570948  0.3573590334753307  0.985555227837502  1.0000
  H   H23       1.0  0.5080934522506587  0.8573590334002809  0.5144447731516877  1.0000
  H   H24       1.0  0.5080934507982877  0.6426409666854492  0.014444772046535308  1.0000
  H   H25       1.0  0.3837954243283134  0.0968641292933316  0.5701994940708028  1.0000
  H   H26       1.0  0.38379542290075386  0.4031358706316185  0.07019949418377248  1.0000
  H   H27       1.0  0.6162045775094914  0.9031358705565687  0.42980050592675867  1.0000
  H   H28       1.0  0.6162045768546287  0.5968641295291615  0.9298005057002648  1.0000
  H   H29       1.0  0.05128648151671997  0.24126240548276495  0.6710092982425496  1.0000
  H   H30       1.0  0.05128648217158274  0.25873759475306485  0.1710092984690433  1.0000
  H   H31       1.0  0.9487135182386626  0.7587375946780149  0.32899070164148775  1.0000
  H   H32       1.0  0.9487135176086113  0.741262405407715  0.8289907026331161  1.0000
  H   H33       1.0  0.8783877217752231  0.17015249441648528  0.6199572598700637  1.0000
  H   H34       1.0  0.8783877224300859  0.32984750550846487  0.11995726009655731  1.0000
  H   H35       1.0  0.12161227798015949  0.8298475057442947  0.38004274001397376  1.0000
  H   H36       1.0  0.12161227732529672  0.6701524943414354  0.88004273978748  1.0000
  H   H37       1.0  0.5149215649734616  0.12316395934689593  0.9835567875966609  1.0000
  H   H38       1.0  0.5149215656283243  0.3768360405780542  0.4835567878231546  1.0000
  H   H39       1.0  0.48507843478192103  0.8768360405030042  0.016443212287376444  1.0000
  H   H40       1.0  0.48507843412705826  0.6231639595827257  0.5164432120608827  1.0000
  H   H41       1.0  0.6841145973798989  0.19487480731582885  0.03738496855711024  1.0000
  H   H42       1.0  0.6841145967250362  0.3051251926091213  0.5373849683306164  1.0000
  H   H43       1.0  0.3158854023754837  0.8051251925340713  0.9626150313269272  1.0000
  H   H44       1.0  0.31588540303034646  0.6948748075516586  0.4626150315534209  1.0000
  H   H45       1.0  0.1516190991053003  0.07904105791647854  0.8492143081008854  1.0000
  H   H46       1.0  0.15161909767774087  0.4209589420084716  0.3492143082138551  1.0000
  H   H47       1.0  0.8483809027325045  0.9209589419334216  0.15078569189667607  1.0000
  H   H48       1.0  0.8483809020776416  0.5790410578414287  0.6507856916701824  1.0000
  H   H49       1.0  0.8958452498811609  0.09885934808330682  0.7054524069680077  1.0000
  H   H50       1.0  0.8958452484536013  0.4011406518416433  0.2054524070809773  1.0000
  H   H51       1.0  0.10415474987422171  0.9011406517665934  0.29454759291602967  1.0000
  H   H52       1.0  0.10415475132659269  0.5988593483191366  0.794547594021182  1.0000
  C   C1        1.0  0.040478756039222824  0.04758197324407105  0.21569550354268402  1.0000
  C   C2        1.0  0.04047875538436005  0.4524180266808791  0.7156955033161903  1.0000
  C   C3        1.0  0.9595212437161598  0.9524180266058292  0.7843044963413535  1.0000
  C   C4        1.0  0.9595212443710225  0.5475819734799008  0.28430449656784706  1.0000
  C   C5        1.0  0.010035476805856338  0.09106219782576225  0.20328247141056163  1.0000
  C   C6        1.0  0.010035476150993563  0.4089378024100675  0.7032824711840678  1.0000
  C   C7        1.0  0.9899645250319485  0.9089378023350176  0.7967175285869998  1.0000
  C   C8        1.0  0.9899645236043889  0.5910621977507124  0.2967175286999695  1.0000
  C   C9        1.0  0.8371547432915482  0.11230840053017035  0.29776656340201213  1.0000
  C   C10       1.0  0.8371547426366853  0.3876915997056594  0.7977665631755184  1.0000
  C   C11       1.0  0.16284525854625667  0.8876915996306095  0.7022334365955493  1.0000
  C   C12       1.0  0.1628452571186972  0.6123084004551205  0.20223343670851895  1.0000
  C   C13       1.0  0.685713684976903  0.09057978907674205  0.4095919792385121  1.0000
  C   C14       1.0  0.6857136843468516  0.40942021084820807  0.9095919802301404  1.0000
  C   C15       1.0  0.3142863168609018  0.9094202107731583  0.5904080207590494  1.0000
  C   C16       1.0  0.3142863154333424  0.5905797890016922  0.090408020872019  1.0000
  C   C17       1.0  0.7148309447934308  0.04690465911676232  0.421403847961071  1.0000
  C   C18       1.0  0.714830944138568  0.4530953408081878  0.9214038477345773  1.0000
  C   C19       1.0  0.28516905496195183  0.953095340733138  0.5785961519229664  1.0000
  C   C20       1.0  0.2851690556168146  0.5469046593525921  0.07859615214946011  1.0000
  C   C21       1.0  0.8887634390369779  0.025967735348558986  0.3261118584182676  1.0000
  C   C22       1.0  0.8887634383821154  0.47403226457639114  0.8261118581917738  1.0000
  C   C23       1.0  0.11123656071840454  0.9740322645013412  0.6738881414657698  1.0000
  C   C24       1.0  0.11123656137326733  0.525967735273509  0.1738881416922635  1.0000
  C   C25       1.0  0.2331321260395908  0.026329577816924358  0.11939490581992752  1.0000
  C   C26       1.0  0.23313212538472805  0.4736704221080258  0.6193949055934338  1.0000
  C   C27       1.0  0.7668678737157918  0.9736704223438556  0.8806050940641099  1.0000
  C   C28       1.0  0.7668678743706545  0.5263295777418745  0.3806050942906036  1.0000
  C   C29       1.0  0.37816003833911915  0.223095339860331  0.8590166676577591  1.0000
  C   C30       1.0  0.3781600389939819  0.2769046600646191  0.35901666788425274  1.0000
  C   C31       1.0  0.6218399614162635  0.7769046599895693  0.1409833322262784  1.0000
  C   C32       1.0  0.6218399607614007  0.7230953400961607  0.6409833319997846  1.0000
  C   C33       1.0  0.1503750217628024  0.2154596617393984  0.7406268470990344  1.0000
  C   C34       1.0  0.15037502241766515  0.28454033818555174  0.24062684732552814  1.0000
  C   C35       1.0  0.8496249779925803  0.7845403381105018  0.25937315278500295  1.0000
  C   C36       1.0  0.8496249773377172  0.7154596616643485  0.7593731525585092  1.0000
  C   C37       1.0  0.05400589685652277  0.175463601311879  0.7117305628165609  1.0000
  C   C38       1.0  0.05400589542896333  0.3245363989239508  0.21173056292953055  1.0000
  C   C39       1.0  0.945994104981282  0.8245363988489008  0.2882694371810005  1.0000
  C   C40       1.0  0.9459941043264192  0.6754636012368291  0.7882694369545068  1.0000
  C   C41       1.0  0.18149468458931525  0.14149262954067504  0.7995769563450066  1.0000
  C   C42       1.0  0.18149468316175582  0.3585073703842751  0.29957695645797616  1.0000
  C   C43       1.0  0.8185053151660673  0.8585073703092253  0.20042304353903087  1.0000
  C   C44       1.0  0.8185053166184384  0.6414926297765049  0.7004230446441833  1.0000
  C   C45       1.0  0.41213436775253526  0.14917227568217195  0.9167643152111118  1.0000
  C   C46       1.0  0.4121343663249758  0.3508277242427782  0.4167643153240815  1.0000
  C   C47       1.0  0.5878656340852696  0.8508277241677283  0.08323568478644962  1.0000
  C   C48       1.0  0.5878656334304067  0.6491722759180018  0.5832356845599559  1.0000
  C   C49       1.0  0.5074235742726202  0.18931944724914304  0.9463705479221837  1.0000
  C   C50       1.0  0.5074235749274829  0.3106805526758071  0.44637054814867744  1.0000
  C   C51       1.0  0.4925764254827623  0.8106805526007572  0.05362945196185371  1.0000
  C   C52       1.0  0.49257642482789954  0.6893194474849728  0.5536294517353599  1.0000
  C   C53       1.0  0.47542161184085624  0.2641469013814151  0.8863347590927525  1.0000
  C   C54       1.0  0.47542161249571896  0.23585309854353503  0.3863347593192462  1.0000
  C   C55       1.0  0.5245783879145263  0.7358530987793648  0.11366524079128491  1.0000
  C   C56       1.0  0.5245783872596635  0.7641469013063653  0.6136652405647912  1.0000
  N   N1        1.0  0.5291565717025454  0.11188606989634474  0.5105253744761967  1.0000
  N   N2        1.0  0.529156570274986  0.3881139300286054  0.01052537458916634  1.0000
  N   N3        1.0  0.47084343013525937  0.8881139302644352  0.4894746255213648  1.0000
  N   N4        1.0  0.47084342948039665  0.6118860698212948  0.9894746252948711  1.0000
  N   N5        1.0  0.09015360722767388  0.10171310269996052  0.7657635360595453  1.0000
  N   N6        1.0  0.09015360788253665  0.3982868972249896  0.2657635362860391  1.0000
  N   N7        1.0  0.9098463925277085  0.8982868971499397  0.23423646382449204  1.0000
  N   N8        1.0  0.909846391872846  0.6017131026249107  0.7342364635979984  1.0000
  N   N9        1.0  0.5510767008113712  0.29849746653843673  0.9069823561965759  1.0000
  N   N10       1.0  0.5510766993838118  0.20150253369739302  0.40698235630954543  1.0000
  N   N11       1.0  0.4489232989440114  0.7015025336223432  0.09301764368746153  1.0000
  N   N12       1.0  0.4489233003715708  0.7984974664633869  0.5930176435744919  1.0000
  O   O1        1.0  0.3563344440347016  0.04500009656490171  0.012560109035209046  1.0000
  O   O2        1.0  0.35633444337983883  0.4549999033600484  0.5125601088087153  1.0000
  O   O3        1.0  0.643665555720681  0.9549999035958782  0.9874398908488283  1.0000
  O   O4        1.0  0.6436655563755438  0.5450000964898518  0.4874398910753221  1.0000
  O   O5        1.0  0.2735612407273508  0.9861834083758629  0.14981200471518757  1.0000
  O   O6        1.0  0.2735612421549102  0.513816591709867  0.649812004602218  1.0000
  O   O7        1.0  0.7264387590280319  0.013816591784916885  0.8501879951688498  1.0000
  O   O8        1.0  0.7264387596828945  0.48618340845091285  0.35018799539534357  1.0000
