data_image0
_chemical_formula_structural       H30C28N4O6F12P2
_chemical_formula_sum              "H30 C28 N4 O6 F12 P2"
_cell_length_a       7.482474492746729
_cell_length_b       10.649280417768173
_cell_length_c       11.108488971930987
_cell_angle_alpha    89.50016184594037
_cell_angle_beta     72.8069411195928
_cell_angle_gamma    79.00931163610758

_space_group_name_H-M_alt    "P 1"
_space_group_IT_number       1

loop_
  _space_group_symop_operation_xyz
  'x, y, z'

loop_
  _atom_site_type_symbol
  _atom_site_label
  _atom_site_symmetry_multiplicity
  _atom_site_fract_x
  _atom_site_fract_y
  _atom_site_fract_z
  _atom_site_occupancy
  H   H1        1.0  0.30193404488113906  0.7000001700023415  0.5469208453086667  1.0000
  H   H2        1.0  0.6980659545306577  0.299999829702959  0.45307915458001646  1.0000
  H   H3        1.0  0.269009449112645  0.4855929854895445  0.6335335824456183  1.0000
  H   H4        1.0  0.7309905516318924  0.5144070142149585  0.36646641745188935  1.0000
  H   H5        1.0  0.039307650879159044  0.46870930264134764  0.8425625996535114  1.0000
  H   H6        1.0  0.9606923480929714  0.5312906971123244  0.15743740117866914  1.0000
  H   H7        1.0  0.8450488613171006  0.6674032801365839  0.9685271123681869  1.0000
  H   H8        1.0  0.1549511394274367  0.3325967195679191  0.03147288752932082  1.0000
  H   H9        1.0  0.8788023775078184  0.8804380604815848  0.8838821763220387  1.0000
  H   H10       1.0  0.12119762323671888  0.11956193922291831  0.11611782357546899  1.0000
  H   H11       1.0  0.9767145910611414  0.9913677268759491  0.6591222224065704  1.0000
  H   H12       1.0  0.02328540835065554  0.008632272829351462  0.34087777748211273  1.0000
  H   H13       1.0  0.2131554447301439  0.9248183302854087  0.5612656098262774  1.0000
  H   H14       1.0  0.7868445542419868  0.07518166946826331  0.438734391005903  1.0000
  H   H15       1.0  0.17425333753971295  0.9890695404219858  0.7155872039760014  1.0000
  H   H16       1.0  0.825746661872084  0.010930459283314636  0.28441279591268165  1.0000
  H   H17       1.0  0.3395663713460731  0.12822182399965112  0.36584781385343923  1.0000
  H   H18       1.0  0.6604336280657237  0.8717781757056493  0.6341521860352438  1.0000
  H   H19       1.0  0.5814915577796114  0.13042882185207114  0.1613606077451081  1.0000
  H   H20       1.0  0.41850844119251934  0.8695711779016009  0.8386393930870722  1.0000
  H   H21       1.0  0.46660336044030876  0.5472183465683257  0.18636310406225934  1.0000
  H   H22       1.0  0.5333966400462921  0.45278165409276694  0.8136368958355302  1.0000
  H   H23       1.0  0.21809169927464434  0.5437366380944659  0.394834337600446  1.0000
  H   H24       1.0  0.7819082998792158  0.45626336256742417  0.6051656622885189  1.0000
  H   H25       1.0  0.9873471967669399  0.2602423193593931  0.6549158427266791  1.0000
  H   H26       1.0  0.012652802386920304  0.7397576813024971  0.34508415716228574  1.0000
  H   H27       1.0  0.2242283463847364  0.17298048278448788  0.5788059913286477  1.0000
  H   H28       1.0  0.7757716525873943  0.8270195169691842  0.42119400950353264  1.0000
  H   H29       1.0  0.03521209190072619  0.17434344795016107  0.5075513766908739  1.0000
  H   H30       1.0  0.9647879070714045  0.8256565518035109  0.49244862414130636  1.0000
  C   C1        1.0  0.09549438882844492  0.8053400626969861  0.7095418365364781  1.0000
  C   C2        1.0  0.9045056105833519  0.19465993700831447  0.29045816335220503  1.0000
  C   C3        1.0  0.20220346442471085  0.6928170465655028  0.6398326343588278  1.0000
  C   C4        1.0  0.7977965363198264  0.3071829531390003  0.36016736553868  1.0000
  C   C5        1.0  0.18342594911237622  0.5724195187276885  0.6879009940816494  1.0000
  C   C6        1.0  0.8165740513742246  0.4275804819334041  0.3120990058161401  1.0000
  C   C7        1.0  0.054670563565142064  0.562518529628939  0.8059755195287579  1.0000
  C   C8        1.0  0.9453294358466547  0.4374814700763615  0.1940244803599253  1.0000
  C   C9        1.0  0.9469651159745273  0.6737709219966594  0.8765729178767759  1.0000
  C   C10       1.0  0.05303488343726972  0.32622907770864096  0.12342708201190716  1.0000
  C   C11       1.0  0.9680273762882756  0.7942416309595628  0.8294671681226673  1.0000
  C   C12       1.0  0.03197262419832528  0.20575836970152991  0.17053283177512213  1.0000
  C   C13       1.0  0.11616688529487396  0.9342786903939979  0.6579361830975428  1.0000
  C   C14       1.0  0.8838331141169229  0.0657213093113025  0.34206381679114045  1.0000
  C   C15       1.0  0.26453842469405847  0.3370674334984353  0.39191317946243076  1.0000
  C   C16       1.0  0.7354615747177383  0.6629325662068651  0.6080868204262523  1.0000
  C   C17       1.0  0.3662792402086115  0.21910415825329588  0.32714901251340184  1.0000
  C   C18       1.0  0.6337207605359256  0.7808958414512072  0.6728509873841059  1.0000
  C   C19       1.0  0.5027337126773587  0.2200049937787618  0.213223395060668  1.0000
  C   C20       1.0  0.49726628647650156  0.7799950068831284  0.786776604828297  1.0000
  C   C21       1.0  0.5374495375338361  0.3388181302983939  0.16225661813011405  1.0000
  C   C22       1.0  0.46255046187796095  0.6611818694069066  0.837743381758569  1.0000
  C   C23       1.0  0.43452685079536935  0.45782027876288084  0.22696803940342627  1.0000
  C   C24       1.0  0.5654731486164277  0.5421797209424196  0.7730319604852567  1.0000
  C   C25       1.0  0.29927089103367394  0.45601761089755927  0.3406458093005815  1.0000
  C   C26       1.0  0.7007291094529269  0.5439823897635333  0.6593541905972079  1.0000
  C   C27       1.0  0.09398749449513975  0.22889223594498811  0.5645403170449551  1.0000
  C   C28       1.0  0.9060125046587205  0.771107764716902  0.4354596828440099  1.0000
  N   N1        1.0  0.6742523007858696  0.33357668939902047  0.05006337373549703  1.0000
  N   N2        1.0  0.32574769951900157  0.6664233103538542  0.949936627105508  1.0000
  N   N3        1.0  0.8436809320330564  0.17377925476628173  0.9733171652876648  1.0000
  N   N4        1.0  0.15631906737874057  0.8262207449390189  0.026682834601018324  1.0000
  O   O1        1.0  0.7179127152445024  0.4215643980009569  0.9847055593750228  1.0000
  O   O2        1.0  0.2820872855000351  0.578435601703546  0.01529444052248497  1.0000
  O   O3        1.0  0.929507421141039  0.20728490762667065  0.8790450531164545  1.0000
  O   O4        1.0  0.07049257801282115  0.7927150930352195  0.12095494677251035  1.0000
  O   O5        1.0  0.13322246388825368  0.3457552144055808  0.5039696835239861  1.0000
  O   O6        1.0  0.8667775368562837  0.6542447852989222  0.4960303163735216  1.0000
  F   F1        1.0  0.4741460855515063  0.2476407792782138  0.9022275825425472  1.0000
  F   F2        1.0  0.5258539138602905  0.7523592204270867  0.09777241734613597  1.0000
  F   F3        1.0  0.4986666292348891  0.08690708662878348  0.6449909446044155  1.0000
  F   F4        1.0  0.5013333701769078  0.913092913076517  0.35500905528426757  1.0000
  F   F5        1.0  0.3196093415962339  0.09290978118058438  0.856090753652665  1.0000
  F   F6        1.0  0.6803906573758969  0.9070902185730876  0.1439092471795153  1.0000
  F   F7        1.0  0.3223367916394153  0.27973164848212007  0.747874120170106  1.0000
  F   F8        1.0  0.6776632077723815  0.7202683512231804  0.2521258797185772  1.0000
  F   F9        1.0  0.6495404981283823  0.05413481567630112  0.8009066188497437  1.0000
  F   F10       1.0  0.35045950128341447  0.9458651840289996  0.1990933810389396  1.0000
  F   F11       1.0  0.6528317309863335  0.24077907172812918  0.6920985720480891  1.0000
  F   F12       1.0  0.3471682697582037  0.759220927976374  0.30790142784941854  1.0000
  P   P1        1.0  0.4858706685928927  0.16692696694621748  0.7741439957454666  1.0000
  P   P2        1.0  0.5141293321516447  0.8330730327582857  0.22585600415204113  1.0000
