data_image0
_chemical_formula_structural       H80C48N16S32I48
_chemical_formula_sum              "H80 C48 N16 S32 I48"
_cell_length_a       15.730834148622373
_cell_length_b       9.521726130329881
_cell_length_c       28.10689496887286
_cell_angle_alpha    90.0
_cell_angle_beta     102.56166344365948
_cell_angle_gamma    90.0

_space_group_name_H-M_alt    "P 1"
_space_group_IT_number       1

loop_
  _space_group_symop_operation_xyz
  'x, y, z'

loop_
  _atom_site_type_symbol
  _atom_site_label
  _atom_site_symmetry_multiplicity
  _atom_site_fract_x
  _atom_site_fract_y
  _atom_site_fract_z
  _atom_site_occupancy
  H   H1        1.0  0.6116435294118299  0.8893798303046352  0.09285577315951418  1.0000
  H   H2        1.0  0.11164352982475156  0.38937983084707256  0.09285577312935238  1.0000
  H   H3        1.0  0.3883564703427368  0.8893798303046352  0.4071442270846225  1.0000
  H   H4        1.0  0.88835647056557  0.38937983084707256  0.407144227114941  1.0000
  H   H5        1.0  0.3883564701460174  0.11062016966071973  0.9071442269037686  1.0000
  H   H6        1.0  0.8883564703688507  0.610620170168512  0.9071442269340874  1.0000
  H   H7        1.0  0.6116435292151103  0.11062016966071973  0.5928557729786603  1.0000
  H   H8        1.0  0.1116435296280322  0.610620170168512  0.5928557729484987  1.0000
  H   H9        1.0  0.7984789338560108  0.17472291864189146  0.18375349662126825  1.0000
  H   H10       1.0  0.29847893363317746  0.6747229180994541  0.1837534965909497  1.0000
  H   H11       1.0  0.20152106575718126  0.17472291864189146  0.31624650325835835  1.0000
  H   H12       1.0  0.7015210659800145  0.6747229180994541  0.31624650328867693  1.0000
  H   H13       1.0  0.2015210663375915  0.8252770813234633  0.8162465034421714  1.0000
  H   H14       1.0  0.7015210659246696  0.3252770818659008  0.8162465034723332  1.0000
  H   H15       1.0  0.7984789338006658  0.8252770813234633  0.6837534968049245  1.0000
  H   H16       1.0  0.2984789342135877  0.3252770818659008  0.6837534967747627  1.0000
  H   H17       1.0  0.8162833305471009  0.22092072290332954  0.12484141635858459  1.0000
  H   H18       1.0  0.3162833303242676  0.720920722360892  0.124841416328266  1.0000
  H   H19       1.0  0.18371666970184627  0.22092072290332954  0.3751585835211988  1.0000
  H   H20       1.0  0.6837166699246796  0.720920722360892  0.37515858355151743  1.0000
  H   H21       1.0  0.1837166696465014  0.7790792770620253  0.8751585837048551  1.0000
  H   H22       1.0  0.6837166698693347  0.27907927760446277  0.8751585837351736  1.0000
  H   H23       1.0  0.8162833304917559  0.7790792770620253  0.6248414165422409  1.0000
  H   H24       1.0  0.3162833302689227  0.27907927760446277  0.6248414165119223  1.0000
  H   H25       1.0  0.7914786351108982  0.4532276659642266  0.15044375495289752  1.0000
  H   H26       1.0  0.291478634888065  0.953227666472019  0.15044375492257892  1.0000
  H   H27       1.0  0.20852136450229375  0.4532276659642266  0.3495562449267291  1.0000
  H   H28       1.0  0.7085213647251271  0.953227666472019  0.3495562449570477  1.0000
  H   H29       1.0  0.20852136508270397  0.5467723340011281  0.8495562451105422  1.0000
  H   H30       1.0  0.7085213646697821  0.0467723334933359  0.8495562451407039  1.0000
  H   H31       1.0  0.7914786349141789  0.5467723340011281  0.6504437547720439  1.0000
  H   H32       1.0  0.29147863532710067  0.0467723334933359  0.6504437547418819  1.0000
  H   H33       1.0  0.8220559484376166  0.4079237059368597  0.2138335600915387  1.0000
  H   H34       1.0  0.3220559482147835  0.9079237064446519  0.2138335600612201  1.0000
  H   H35       1.0  0.17794405181133033  0.4079237059368597  0.28616643978824474  1.0000
  H   H36       1.0  0.6779440513984085  0.9079237064446519  0.28616643981840656  1.0000
  H   H37       1.0  0.1779440517559854  0.592076294028495  0.7861664399719009  1.0000
  H   H38       1.0  0.6779440519788187  0.09207629352070282  0.7861664400022196  1.0000
  H   H39       1.0  0.8220559482408973  0.592076294028495  0.7138335599106849  1.0000
  H   H40       1.0  0.3220559480180641  0.09207629352070282  0.7138335598803663  1.0000
  H   H41       1.0  0.508037982356291  0.22893488010082877  0.12281368985845269  1.0000
  H   H42       1.0  0.008037982133457846  0.7289348806086211  0.12281368982813409  1.0000
  H   H43       1.0  0.49196201803403056  0.22893488010082877  0.3771863103858407  1.0000
  H   H44       1.0  0.9919620182568638  0.7289348806086211  0.37718631041615935  1.0000
  H   H45       1.0  0.49196201783731114  0.7710651198645261  0.877186310204987  1.0000
  H   H46       1.0  0.9919620180601444  0.2710651193567337  0.8771863102353056  1.0000
  H   H47       1.0  0.5080379821595716  0.7710651198645261  0.6228136896775989  1.0000
  H   H48       1.0  0.008037981936738426  0.2710651193567337  0.6228136896472802  1.0000
  H   H49       1.0  0.5245283664115176  0.3092881741913713  0.06779309500076125  1.0000
  H   H50       1.0  0.024528366824439426  0.8092881736489338  0.06779309497059945  1.0000
  H   H51       1.0  0.4754716332016744  0.3092881741913713  0.43220690487886537  1.0000
  H   H52       1.0  0.9754716334245077  0.8092881736489338  0.432206904909184  1.0000
  H   H53       1.0  0.4754716331463295  0.6907118257739835  0.9322069050625217  1.0000
  H   H54       1.0  0.9754716333691628  0.19071182631642103  0.9322069050928402  1.0000
  H   H55       1.0  0.5245283669919278  0.6907118257739835  0.5677930951845743  1.0000
  H   H56       1.0  0.024528366769094534  0.19071182631642103  0.5677930951542557  1.0000
  H   H57       1.0  0.6492505367759371  0.1335212757222995  0.12256758929139065  1.0000
  H   H58       1.0  0.14925053655310386  0.6335212762300918  0.12256758926107204  1.0000
  H   H59       1.0  0.35074946347300995  0.1335212757222995  0.3774324105883928  1.0000
  H   H60       1.0  0.8507494636958434  0.6335212762300918  0.37743241061871136  1.0000
  H   H61       1.0  0.3507494634176651  0.8664787242430553  0.877432410772049  1.0000
  H   H62       1.0  0.8507494636404983  0.366478723735263  0.8774324108023676  1.0000
  H   H63       1.0  0.6492505365792178  0.8664787242430553  0.6225675891105369  1.0000
  H   H64       1.0  0.149250536497759  0.366478723735263  0.6225675894447283  1.0000
  H   H65       1.0  0.6317234563595836  0.13800936216955373  0.05740654297550635  1.0000
  H   H66       1.0  0.1317234561367504  0.6380093616271162  0.05740654294518774  1.0000
  H   H67       1.0  0.36827654403073795  0.13800936216955373  0.4425934572687871  1.0000
  H   H68       1.0  0.8682765436178161  0.6380093616271162  0.4425934572989489  1.0000
  H   H69       1.0  0.3682765438340186  0.8619906377958011  0.9425934570879334  1.0000
  H   H70       1.0  0.8682765440568518  0.3619906383382386  0.942593457118252  1.0000
  H   H71       1.0  0.6317234561628642  0.8619906377958011  0.5574065427946525  1.0000
  H   H72       1.0  0.131723455940031  0.3619906383382386  0.557406542764334  1.0000
  H   H73       1.0  0.9460472715689772  0.08849459315112725  0.17943969219965972  1.0000
  H   H74       1.0  0.44604727134614386  0.5884945936589194  0.1794396921693411  1.0000
  H   H75       1.0  0.05395272867997  0.08849459315112725  0.3205603076801237  1.0000
  H   H76       1.0  0.5539527282670482  0.5884945936589194  0.3205603077102855  1.0000
  H   H77       1.0  0.05395272862462503  0.9115054068142275  0.8205603078637799  1.0000
  H   H78       1.0  0.5539527288474584  0.4115054063064353  0.8205603078940986  1.0000
  H   H79       1.0  0.9460472715136322  0.9115054068142275  0.679439692383316  1.0000
  H   H80       1.0  0.44604727129079896  0.4115054063064353  0.6794396923529974  1.0000
  C   C1        1.0  0.9896185389014466  0.2921696404540065  0.18459571298600225  1.0000
  C   C2        1.0  0.48961853931436833  0.792169639911569  0.18459571295584046  1.0000
  C   C3        1.0  0.010381460853120006  0.2921696404540065  0.31540428725813446  1.0000
  C   C4        1.0  0.5103814610759533  0.792169639911569  0.31540428728845304  1.0000
  C   C5        1.0  0.010381460656400578  0.7078303595113483  0.8154042870772806  1.0000
  C   C6        1.0  0.5103814608792338  0.20783036005378583  0.8154042871075992  1.0000
  C   C7        1.0  0.9896185393404822  0.7078303595113483  0.6845957128053052  1.0000
  C   C8        1.0  0.489618539117649  0.20783036005378583  0.6845957127749867  1.0000
  C   C9        1.0  0.8388547555244356  0.23744574765685592  0.1643929363512352  1.0000
  C   C10       1.0  0.3388547559373573  0.7374457471144185  0.16439293632107338  1.0000
  C   C11       1.0  0.16114524408875655  0.23744574765685592  0.3356070635283915  1.0000
  C   C12       1.0  0.6611452443115898  0.7374457471144185  0.33560706355871  1.0000
  C   C13       1.0  0.16114524403341163  0.7625542523084989  0.8356070637120476  1.0000
  C   C14       1.0  0.6611452442562449  0.26255425285093636  0.8356070637423663  1.0000
  C   C15       1.0  0.8388547561048457  0.7625542523084989  0.6643929365350483  1.0000
  C   C16       1.0  0.3388547558820124  0.26255425285093636  0.6643929365047296  1.0000
  C   C17       1.0  0.8370358956231456  0.39262663815667626  0.1778810761561765  1.0000
  C   C18       1.0  0.3370358960360675  0.8926266386644686  0.1778810761260147  1.0000
  C   C19       1.0  0.1629641041314209  0.39262663815667626  0.32211892408796017  1.0000
  C   C20       1.0  0.6629641042128797  0.8926266386644686  0.3221189237537687  1.0000
  C   C21       1.0  0.16296410393470145  0.6073733618086785  0.8221189239071064  1.0000
  C   C22       1.0  0.6629641041575346  0.10737336130088627  0.8221189239374249  1.0000
  C   C23       1.0  0.8370358960621813  0.6073733618086785  0.6778810759754795  1.0000
  C   C24       1.0  0.33703589583934807  0.10737336130088627  0.6778810759451609  1.0000
  C   C25       1.0  0.4864471916952286  0.9534367084012612  0.06511940794474008  1.0000
  C   C26       1.0  0.9864471919180618  0.4534367089436986  0.06511940797505868  1.0000
  C   C27       1.0  0.5135528086950931  0.9534367084012612  0.43488059229955334  1.0000
  C   C28       1.0  0.013552808472259814  0.4534367089436986  0.43488059226923476  1.0000
  C   C29       1.0  0.5135528084983736  0.04656329156409371  0.9348805921186996  1.0000
  C   C30       1.0  0.013552808275540458  0.5465632910216564  0.934880592088381  1.0000
  C   C31       1.0  0.4864471914985091  0.04656329156409371  0.5651194077638864  1.0000
  C   C32       1.0  0.9864471917213424  0.5465632910216564  0.5651194077942049  1.0000
  C   C33       1.0  0.5208070078518272  0.2092973020566132  0.08649704823181548  1.0000
  C   C34       1.0  0.020807007770368452  0.7092973015141758  0.08649704856600689  1.0000
  C   C35       1.0  0.47919299239711993  0.2092973020566132  0.413502951647968  1.0000
  C   C36       1.0  0.9791929919841981  0.7092973015141758  0.4135029516781298  1.0000
  C   C37       1.0  0.4791929922004005  0.7907026979087417  0.9135029514671142  1.0000
  C   C38       1.0  0.9791929917874788  0.2907026984511791  0.913502951497276  1.0000
  C   C39       1.0  0.5208070077964823  0.7907026979087417  0.5864970484154717  1.0000
  C   C40       1.0  0.02080700820940414  0.2907026984511791  0.58649704838531  1.0000
  C   C41       1.0  0.6010265372001545  0.1176569746562525  0.0883433266869998  1.0000
  C   C42       1.0  0.10102653697732132  0.6176569751640447  0.08834332665668121  1.0000
  C   C43       1.0  0.39897346304879255  0.1176569746562525  0.41165667319278365  1.0000
  C   C44       1.0  0.8989734632716258  0.6176569751640447  0.4116566732231022  1.0000
  C   C45       1.0  0.39897346299344766  0.8823430253091024  0.9116566733764399  1.0000
  C   C46       1.0  0.8989734632162809  0.3823430258515398  0.9116566734067585  1.0000
  C   C47       1.0  0.6010265371448097  0.8823430253091024  0.588343326870656  1.0000
  C   C48       1.0  0.10102653692197645  0.3823430258515398  0.5883433268403375  1.0000
  N   N1        1.0  0.9293996137164158  0.19244403114716724  0.17906154028029875  1.0000
  N   N2        1.0  0.4293996134935824  0.6924440316549596  0.17906154024998014  1.0000
  N   N3        1.0  0.07060038653253142  0.19244403114716724  0.3209384595994847  1.0000
  N   N4        1.0  0.5706003861196095  0.6924440316549596  0.3209384596296465  1.0000
  N   N5        1.0  0.07060038647718651  0.8075559688181876  0.820938459783141  1.0000
  N   N6        1.0  0.5706003860642647  0.307555969360625  0.8209384598133026  1.0000
  N   N7        1.0  0.9293996136610707  0.8075559688181876  0.679061540463955  1.0000
  N   N8        1.0  0.42939961343823746  0.307555969360625  0.6790615404336364  1.0000
  N   N9        1.0  0.5697800520554848  0.9727097905596999  0.08581829434200987  1.0000
  N   N10       1.0  0.06978005183265153  0.4727097911021373  0.08581829431169127  1.0000
  N   N11       1.0  0.4302199481934623  0.9727097905596999  0.41418170553777356  1.0000
  N   N12       1.0  0.9302199484162956  0.4727097911021373  0.4141817055680922  1.0000
  N   N13       1.0  0.4302199481381174  0.02729020940565505  0.9141817057214298  1.0000
  N   N14       1.0  0.9302199483609508  0.5272902088632176  0.9141817057517485  1.0000
  N   N15       1.0  0.56978005200014  0.02729020940565505  0.5858182945256662  1.0000
  N   N16       1.0  0.06978005177730658  0.5272902088632176  0.5858182944953474  1.0000
  S   S1        1.0  0.0989626971531992  0.26862011099571365  0.19420208419941104  1.0000
  S   S2        1.0  0.5989626973760325  0.7686201104532763  0.19420208422972962  1.0000
  S   S3        1.0  0.9010373024599929  0.26862011099571365  0.3057979156802156  1.0000
  S   S4        1.0  0.40103730287291467  0.7686201104532763  0.3057979156500538  1.0000
  S   S5        1.0  0.901037302404648  0.7313798889696412  0.8057979158638718  1.0000
  S   S6        1.0  0.4010373028175698  0.23137988951207863  0.8057979158337101  1.0000
  S   S7        1.0  0.09896269709785431  0.7313798889696412  0.6942020843830672  1.0000
  S   S8        1.0  0.5989626973206875  0.23137988951207863  0.6942020844133858  1.0000
  S   S9        1.0  0.9467086288154232  0.4600033292333575  0.1807800212998514  1.0000
  S   S10       1.0  0.4467086292283451  0.9600033297411498  0.18078002126968962  1.0000
  S   S11       1.0  0.05329137079776879  0.4600033292333575  0.3192199785797752  1.0000
  S   S12       1.0  0.5532913710206021  0.9600033297411498  0.3192199786100938  1.0000
  S   S13       1.0  0.05329137074242392  0.5399966707319973  0.8192199787634314  1.0000
  S   S14       1.0  0.5532913708238827  0.039996670224205014  0.8192199784292401  1.0000
  S   S15       1.0  0.9467086293958334  0.5399966707319973  0.6807800214836645  1.0000
  S   S16       1.0  0.44670862917300014  0.039996670224205014  0.6807800214533458  1.0000
  S   S17       1.0  0.4347547494868378  0.7973506437888871  0.05115025563286968  1.0000
  S   S18       1.0  0.934754749709671  0.29735064328109484  0.051150255663188274  1.0000
  S   S19       1.0  0.5652452509034839  0.7973506437888871  0.4488497446114238  1.0000
  S   S20       1.0  0.06524525068065057  0.29735064328109484  0.44884974458110516  1.0000
  S   S21       1.0  0.5652452507067645  0.20264935617646773  0.94884974443057  1.0000
  S   S22       1.0  0.06524525048393116  0.70264935668426  0.9488497444002514  1.0000
  S   S23       1.0  0.43475474929011837  0.20264935617646773  0.5511502554520159  1.0000
  S   S24       1.0  0.9347547495129517  0.70264935668426  0.5511502554823345  1.0000
  S   S25       1.0  0.42910194485587194  0.10847582737230185  0.05182252240234028  1.0000
  S   S26       1.0  0.9291019450787052  0.6084758268298645  0.05182252243265888  1.0000
  S   S27       1.0  0.5708980553930751  0.10847582737230185  0.4481774774774432  1.0000
  S   S28       1.0  0.07089805517024186  0.6084758268298645  0.4481774774471245  1.0000
  S   S29       1.0  0.5708980551963558  0.8915241725930528  0.9481774772965894  1.0000
  S   S30       1.0  0.07089805497352247  0.3915241731354904  0.9481774772662708  1.0000
  S   S31       1.0  0.42910194480052705  0.8915241725930528  0.5518225225859965  1.0000
  S   S32       1.0  0.9291019450233603  0.3915241731354904  0.5518225226163151  1.0000
  I   I1        1.0  0.11489791371858893  0.9967677740455221  0.2056628084965867  1.0000
  I   I2        1.0  0.6148979131642925  0.4967677745879597  0.2056628081622385  1.0000
  I   I3        1.0  0.8851020866717327  0.9967677740455221  0.29433719174770673  1.0000
  I   I4        1.0  0.3851020864488994  0.4967677745879597  0.29433719171738815  1.0000
  I   I5        1.0  0.8851020864750132  0.0032322259198326415  0.794337191566853  1.0000
  I   I6        1.0  0.38510208625218  0.5032322253773952  0.7943371915365345  1.0000
  I   I7        1.0  0.11489791352186952  0.0032322259198326415  0.7056628083157329  1.0000
  I   I8        1.0  0.6148979137447028  0.5032322253773952  0.7056628083460514  1.0000
  I   I9        1.0  0.1441001330428055  0.6962282971869437  0.22907609609365823  1.0000
  I   I10       1.0  0.6441001332656388  0.19622829667915137  0.2290760961239768  1.0000
  I   I11       1.0  0.8558998667117611  0.6962282971869437  0.27092390415047846  1.0000
  I   I12       1.0  0.3558998671246829  0.19622829667915137  0.27092390412031664  1.0000
  I   I13       1.0  0.8558998671507967  0.30377170277841115  0.7709239039697815  1.0000
  I   I14       1.0  0.3558998669279635  0.8037717032862034  0.7709239039394629  1.0000
  I   I15       1.0  0.14410013284608605  0.30377170277841115  0.7290760959128044  1.0000
  I   I16       1.0  0.6441001330689193  0.8037717032862034  0.7290760959431231  1.0000
  I   I17       1.0  0.564612806672204  0.626785832559252  0.05391333913893794  1.0000
  I   I18       1.0  0.0646128070851259  0.12678583310168948  0.053913339108776125  1.0000
  I   I19       1.0  0.43538719294098793  0.626785832559252  0.44608666074068865  1.0000
  I   I20       1.0  0.9353871931638212  0.12678583310168948  0.44608666077100734  1.0000
  I   I21       1.0  0.43538719288564304  0.3732141674061028  0.9460866609243449  1.0000
  I   I22       1.0  0.9353871931084763  0.8732141668636654  0.9460866609546635  1.0000
  I   I23       1.0  0.5646128072526143  0.3732141674061028  0.553913339322751  1.0000
  I   I24       1.0  0.064612807029781  0.8732141668636654  0.5539133392924324  1.0000
  I   I25       1.0  0.7104874920157622  0.4355596845817195  0.04658992640227286  1.0000
  I   I26       1.0  0.21048749179292897  0.935559684039282  0.04658992637195426  1.0000
  I   I27       1.0  0.28951250759742975  0.4355596845817195  0.45341007347735374  1.0000
  I   I28       1.0  0.7895125078202629  0.935559684039282  0.45341007350767243  1.0000
  I   I29       1.0  0.28951250817783997  0.5644403153836354  0.9534100736611668  1.0000
  I   I30       1.0  0.7895125077649182  0.06444031592607277  0.9534100736913287  1.0000
  I   I31       1.0  0.7104874919604174  0.5644403153836354  0.5465899265859291  1.0000
  I   I32       1.0  0.21048749237333916  0.06444031592607277  0.5465899265557673  1.0000
  I   I33       1.0  0.8025969766403817  0.9331282824548303  0.059791293975608964  1.0000
  I   I34       1.0  0.30259697705330346  0.4331282829972677  0.059791293945447146  1.0000
  I   I35       1.0  0.1974030231141849  0.9331282824548303  0.4402087062685277  1.0000
  I   I36       1.0  0.6974030233370181  0.4331282829972677  0.4402087062988463  1.0000
  I   I37       1.0  0.19740302291746548  0.06687171751052456  0.9402087060876739  1.0000
  I   I38       1.0  0.6974030231402988  0.566871716968087  0.9402087061179926  1.0000
  I   I39       1.0  0.8025969770794172  0.06687171751052456  0.5597912937949119  1.0000
  I   I40       1.0  0.30259697685658404  0.566871716968087  0.5597912937645934  1.0000
  I   I41       1.0  0.8237293160705246  0.8167304502939505  0.15437659787058325  1.0000
  I   I42       1.0  0.3237293164834464  0.31673045083638807  0.1543765978404215  1.0000
  I   I43       1.0  0.1762706835426675  0.8167304502939505  0.34562340200904335  1.0000
  I   I44       1.0  0.6762706837655007  0.31673045083638807  0.3456234020393619  1.0000
  I   I45       1.0  0.17627068412307773  0.18326954967140424  0.8456234021928565  1.0000
  I   I46       1.0  0.6762706837101559  0.6832695491289668  0.8456234022230182  1.0000
  I   I47       1.0  0.8237293160151797  0.18326954967140424  0.6543765980542396  1.0000
  I   I48       1.0  0.32372931642810143  0.6832695491289668  0.6543765980240777  1.0000
