data_image0
_chemical_formula_structural       H10C12N2I7
_chemical_formula_sum              "H10 C12 N2 I7"
_cell_length_a       7.722766523444835
_cell_length_b       7.898840548452343
_cell_length_c       10.290185079384518
_cell_angle_alpha    90.08592676728638
_cell_angle_beta     75.80244197288003
_cell_angle_gamma    62.14405336120763

_space_group_name_H-M_alt    "P 1"
_space_group_IT_number       1

loop_
  _space_group_symop_operation_xyz
  'x, y, z'

loop_
  _atom_site_type_symbol
  _atom_site_label
  _atom_site_symmetry_multiplicity
  _atom_site_fract_x
  _atom_site_fract_y
  _atom_site_fract_z
  _atom_site_occupancy
  H   H1        1.0  0.8086083030698663  0.5283394329170462  0.7116611970317545  1.0000
  H   H2        1.0  0.1913916974493434  0.4716605668424768  0.2883388020952852  1.0000
  H   H3        1.0  0.27377783409911755  0.222129952653255  0.34988114503133017  1.0000
  H   H4        1.0  0.7262221659973779  0.7778700472762695  0.6501188551072528  1.0000
  H   H5        1.0  0.34671564377193337  0.9225508491932677  0.44564228709183173  1.0000
  H   H6        1.0  0.6532843556349462  0.07744915217147685  0.5543577130649429  1.0000
  H   H7        1.0  0.1437746739254289  0.9297124848022931  0.682642542277135  1.0000
  H   H8        1.0  0.856225326171067  0.07028751512723128  0.31735745786144803  1.0000
  H   H9        1.0  0.8679287239401726  0.2546598808483753  0.8109164840274814  1.0000
  H   H10       1.0  0.13207127588942089  0.7453401203463677  0.1890835151177499  1.0000
  C   C1        1.0  0.5844697287645644  0.003030309282187227  0.002018451443131499  1.0000
  C   C2        1.0  0.4155302713319312  0.9969696906473372  0.9979815486954515  1.0000
  C   C3        1.0  0.02728097760725844  0.408918543282162  0.52438425764801  1.0000
  C   C4        1.0  0.9727190224892373  0.5910814566473626  0.475615742490573  1.0000
  C   C5        1.0  0.18354034807147157  0.22881503744253945  0.45114148414788124  1.0000
  C   C6        1.0  0.8164596520250242  0.771184962486985  0.5488585159907016  1.0000
  C   C7        1.0  0.22541924568566216  0.05878526835514496  0.5052343243683769  1.0000
  C   C8        1.0  0.7745807544108335  0.9412147315743794  0.4947656757702061  1.0000
  C   C9        1.0  0.11247352025653537  0.06144347497530228  0.6370618846739664  1.0000
  C   C10       1.0  0.8875264798399604  0.9385565249542221  0.36293811546461663  1.0000
  C   C11       1.0  0.9618016433718338  0.2371908087804153  0.7083719552373391  1.0000
  C   C12       1.0  0.03819835672466192  0.7628091911491091  0.2916280449012439  1.0000
  N   N1        1.0  0.9220295814242996  0.4025850177044624  0.6531300290073343  1.0000
  N   N2        1.0  0.07797041867219606  0.597414982225062  0.34686997113124873  1.0000
  I   I1        1.0  0.5000000002596048  0.4999999998797615  0.4999999995635198  1.0000
  I   I2        1.0  0.634861630077051  0.6086825395018092  0.23404135596050313  1.0000
  I   I3        1.0  0.36513837001944477  0.39131746042771526  0.7659586441780799  1.0000
  I   I4        1.0  0.5833330023525427  0.24316929478844934  0.09764791779265058  1.0000
  I   I5        1.0  0.41666699774395305  0.7568307051410751  0.9023520823459322  1.0000
  I   I6        1.0  0.8841116867857397  0.7739496284982441  0.9120596556106959  1.0000
  I   I7        1.0  0.11588831331075586  0.22605037143128037  0.08794034452788713  1.0000
