data_image0
_chemical_formula_structural       H92C116N8O6Br2
_chemical_formula_sum              "H92 C116 N8 O6 Br2"
_cell_length_a       11.10728989271305
_cell_length_b       11.235722082554705
_cell_length_c       18.852181667111626
_cell_angle_alpha    104.23399514374361
_cell_angle_beta     102.18793469475989
_cell_angle_gamma    93.25794928787829

_space_group_name_H-M_alt    "P 1"
_space_group_IT_number       1

loop_
  _space_group_symop_operation_xyz
  'x, y, z'

loop_
  _atom_site_type_symbol
  _atom_site_label
  _atom_site_symmetry_multiplicity
  _atom_site_fract_x
  _atom_site_fract_y
  _atom_site_fract_z
  _atom_site_occupancy
  H   H1        1.0  0.38889899178516857  0.46896310043553124  0.47361764231166786  1.0000
  H   H2        1.0  0.6111010080784167  0.5310368993038618  0.5263823578388509  1.0000
  H   H3        1.0  0.2532036918162894  0.3703127242955686  0.416263977462238  1.0000
  H   H4        1.0  0.7467963080472959  0.6296872754438245  0.5837360226882808  1.0000
  H   H5        1.0  0.4520560071321026  0.5141634818325819  0.3635105566449601  1.0000
  H   H6        1.0  0.5479439927855757  0.4858365187994077  0.6364894435082054  1.0000
  H   H7        1.0  0.387323041377193  0.2389529287599844  0.34445904508012287  1.0000
  H   H8        1.0  0.6126769584863925  0.7610470709794086  0.655540955070396  1.0000
  H   H9        1.0  0.5515850999632205  0.13983572238605507  0.5481383874673172  1.0000
  H   H10       1.0  0.44841489995445794  0.8601642782459346  0.4518616126858483  1.0000
  H   H11       1.0  0.6799022329508717  0.32865190166485936  0.5208559782575288  1.0000
  H   H12       1.0  0.3200977666968981  0.671348097834476  0.4791440213303206  1.0000
  H   H13       1.0  0.8808906214079771  0.34422384914502796  0.6098449483449488  1.0000
  H   H14       1.0  0.11910937845560811  0.6557761505943652  0.39015505180557003  1.0000
  H   H15       1.0  0.1602568244977118  0.9200932647517289  0.4783280801795611  1.0000
  H   H16       1.0  0.8397431760501651  0.07990673474568621  0.5216719194080363  1.0000
  H   H17       1.0  0.1984995118354858  0.2495452474745456  0.27558086374557406  1.0000
  H   H18       1.0  0.8015004880280995  0.7504547522648475  0.7244191364049447  1.0000
  H   H19       1.0  0.3227201371345239  0.6307744084340948  0.29861236056320895  1.0000
  H   H20       1.0  0.6772798627831543  0.3692255921978948  0.7013876395899565  1.0000
  H   H21       1.0  0.6937052785735756  0.09591756672362568  0.656021759034319  1.0000
  H   H22       1.0  0.3062947222442097  0.9040824339064437  0.34397824111859443  1.0000
  H   H23       1.0  0.02041112537837584  0.8224157854746136  0.3646741963090368  1.0000
  H   H24       1.0  0.9795888745393027  0.17758421515737605  0.6353258038441288  1.0000
  H   H25       1.0  0.3833349988790242  0.9371714312468995  0.7185710377815746  1.0000
  H   H26       1.0  0.616665000984561  0.06282856849249364  0.28142896236894427  1.0000
  H   H27       1.0  0.23954354462261937  0.9877857367336695  0.6134245597240061  1.0000
  H   H28       1.0  0.760456456195166  0.012214263896399824  0.3865754404289074  1.0000
  H   H29       1.0  0.2983086664920544  0.05144447742924532  0.9355924992354651  1.0000
  H   H30       1.0  0.701691333371531  0.9485555223101478  0.06440750091505372  1.0000
  H   H31       1.0  0.6102344359001638  0.9922088375415471  0.7411507720880594  1.0000
  H   H32       1.0  0.3897655646477131  0.007791161955868061  0.2588492274995379  1.0000
  H   H33       1.0  0.0683811794337162  0.3405853095060994  0.43106867568968066  1.0000
  H   H34       1.0  0.9316188204298691  0.6594146902332937  0.568931324460838  1.0000
  H   H35       1.0  0.5908892869719461  0.6466842719505563  0.3219023026016076  1.0000
  H   H36       1.0  0.4091107128916392  0.3533157277888367  0.6780976975489112  1.0000
  H   H37       1.0  0.31078239070171904  0.15340623836326855  0.07710921357769769  1.0000
  H   H38       1.0  0.6892176100619732  0.8465937613742043  0.922890786572569  1.0000
  H   H39       1.0  0.44202223644457644  0.9642413266946551  0.8569283434275147  1.0000
  H   H40       1.0  0.5579777634190088  0.03575867304473806  0.14307165672300418  1.0000
  H   H41       1.0  0.8210640741253625  0.0903054419595783  0.2106946961954227  1.0000
  H   H42       1.0  0.17893592579231563  0.9096945586724112  0.7893053039577428  1.0000
  H   H43       1.0  0.8346353320568503  0.7367576621135292  0.26143812895454926  1.0000
  H   H44       1.0  0.16536466759091964  0.2632423373858062  0.7385618706333001  1.0000
  H   H45       1.0  0.009317579701538006  0.17460371141928033  0.31324660629706985  1.0000
  H   H46       1.0  0.9906824201620473  0.8253962883201129  0.6867533938534489  1.0000
  H   H47       1.0  0.9838081483489672  0.28457781014051003  0.22079234508287893  1.0000
  H   H48       1.0  0.01619185151461805  0.7154221895988832  0.7792076550676399  1.0000
  H   H49       1.0  0.10866994192611498  0.6634370196364902  0.2413418345000919  1.0000
  H   H50       1.0  0.8913300579374704  0.336562980102903  0.758658165650427  1.0000
  H   H51       1.0  0.7352909622893363  0.8699482783556425  0.18351351293557142  1.0000
  H   H52       1.0  0.264709037628342  0.13005172227634706  0.8164864872175941  1.0000
  H   H53       1.0  0.870244911815731  0.3371066560783515  0.34425378839245735  1.0000
  H   H54       1.0  0.12975508804785438  0.6628933436610416  0.6557462117580614  1.0000
  H   H55       1.0  0.5996379690319148  0.312045685944636  0.08552990928356534  1.0000
  H   H56       1.0  0.4003620306699481  0.6879543144472959  0.9144700903069308  1.0000
  H   H57       1.0  0.9372337643781248  0.48854634316455575  0.20478415742832423  1.0000
  H   H58       1.0  0.06276623548546058  0.5114536565748372  0.7952158427221946  1.0000
  H   H59       1.0  0.6625552405131047  0.05208469128771471  0.8912111926050802  1.0000
  H   H60       1.0  0.3374447603046807  0.9479153093423546  0.10878880754783325  1.0000
  H   H61       1.0  0.5884178222643771  0.7859819844663751  0.2373614452645262  1.0000
  H   H62       1.0  0.4115821775992082  0.21401801527301803  0.7626385548859926  1.0000
  H   H63       1.0  0.7413004504393241  0.225574293721652  0.00693107566889992  1.0000
  H   H64       1.0  0.2586995494783541  0.7744257069103375  0.9930689244842655  1.0000
  H   H65       1.0  0.4101742050838288  0.4864067238245802  0.04449214846383146  1.0000
  H   H66       1.0  0.5898257947797565  0.5135932759148129  0.9555078516866872  1.0000
  H   H67       1.0  0.4990325791558466  0.7057790409626868  0.10027512067212248  1.0000
  H   H68       1.0  0.5009674207077388  0.2942209587767062  0.8997248794783963  1.0000
  H   H69       1.0  0.3034441267974992  0.3035747509183576  0.9275841599804688  1.0000
  H   H70       1.0  0.6965558730660861  0.6964252488210354  0.07241584017004996  1.0000
  H   H71       1.0  0.14117717459106263  0.28507892247823435  0.11326597358631219  1.0000
  H   H72       1.0  0.8588228261726296  0.7149210772592386  0.8867340265639546  1.0000
  H   H73       1.0  0.11048883132973897  0.36984900951626526  0.8642560012136244  1.0000
  H   H74       1.0  0.8895111685879394  0.6301509911157243  0.13574399893954117  1.0000
  H   H75       1.0  0.9489104091216273  0.3533861566465338  0.050645844265309665  1.0000
  H   H76       1.0  0.05108959169615793  0.6466138439835356  0.9493541558876037  1.0000
  H   H77       1.0  0.9306798609550887  0.391897397080906  0.9242045859452346  1.0000
  H   H78       1.0  0.06932013959278806  0.6081026024165092  0.07579541364236275  1.0000
  H   H79       1.0  0.08314629210457491  0.8960763093519872  0.0028857917136587293  1.0000
  H   H80       1.0  0.916853707597288  0.10392369103994478  0.9971142078768375  1.0000
  H   H81       1.0  0.13341677495235152  0.05496350200450105  0.04021166182740896  1.0000
  H   H82       1.0  0.8665832258113407  0.9450364977329719  0.9597883383228578  1.0000
  H   H83       1.0  0.9377646696739953  0.9105177835697513  0.08932441179616846  1.0000
  H   H84       1.0  0.0622353301895903  0.08948221616964185  0.9106755883543504  1.0000
  H   H85       1.0  0.9884694520629995  0.06935410157990243  0.12682990599485336  1.0000
  H   H86       1.0  0.011530548484877471  0.9306458979175126  0.873170093592744  1.0000
  H   H87       1.0  0.1559756244337536  0.8611928142433616  0.1352356775234861  1.0000
  H   H88       1.0  0.8440243761141232  0.13880718525405344  0.8647643220641111  1.0000
  H   H89       1.0  0.09456972658591827  0.9432660091874407  0.20991360298045605  1.0000
  H   H90       1.0  0.9054302730618516  0.056733990311894675  0.7900863966073933  1.0000
  H   H91       1.0  0.2034898392353223  0.022045365828307763  0.17578305557320742  1.0000
  H   H92       1.0  0.79651016152837  0.9779546339091651  0.8242169445770593  1.0000
  C   C1        1.0  0.35213508572637625  0.37418702127674197  0.4410140793012611  1.0000
  C   C2        1.0  0.6478649139213938  0.6258129782225935  0.5589859202865883  1.0000
  C   C3        1.0  0.637321404270866  0.33913853162815083  0.3771413463427151  1.0000
  C   C4        1.0  0.36267859559271937  0.6608614681112422  0.6228586538078036  1.0000
  C   C5        1.0  0.6119060412692625  0.3522674529419091  0.30506944865378616  1.0000
  C   C6        1.0  0.38809395837850735  0.6477325465574263  0.6949305509340632  1.0000
  C   C7        1.0  0.3739887268221077  0.29355930222278837  0.4947325389912984  1.0000
  C   C8        1.0  0.6260112730414776  0.7064406975166049  0.5052674611592205  1.0000
  C   C9        1.0  0.7583552285691499  0.33229151882279234  0.4253108760582951  1.0000
  C   C10       1.0  0.241644771132713  0.6677084815691395  0.574689123532201  1.0000
  C   C11       1.0  0.420888269866366  0.2776885768822422  0.20047562185056397  1.0000
  C   C12       1.0  0.5791117299972193  0.7223114228571508  0.7995243782999548  1.0000
  C   C13       1.0  0.9868362168373457  0.3424111979599213  0.5256183285892747  1.0000
  C   C14       1.0  0.01316378308033265  0.6575888026720682  0.47438167156389077  1.0000
  C   C15       1.0  0.40767569805812287  0.4235938925822872  0.3269266830725067  1.0000
  C   C16       1.0  0.5923243018595554  0.5764061080497023  0.6730733170806588  1.0000
  C   C17       1.0  0.29646692757047116  0.08409009432955437  0.5077671279573103  1.0000
  C   C18       1.0  0.7035330722931141  0.9159099054098386  0.4922328721932084  1.0000
  C   C19       1.0  0.41848098727817773  0.3353386232993445  0.3771711195750835  1.0000
  C   C20       1.0  0.5815190126395006  0.6646613773326451  0.6228288805780821  1.0000
  C   C21       1.0  0.487509837497501  0.3863823229028034  0.2681419662735293  1.0000
  C   C22       1.0  0.5124901630503758  0.6136176765946117  0.7318580333140681  1.0000
  C   C23       1.0  0.27586580313103165  0.4385071146876388  0.2914717381896935  1.0000
  C   C24       1.0  0.7241341967325537  0.5614928850517543  0.7085282619608253  1.0000
  C   C25       1.0  0.38517124539814784  0.06811906909622858  0.5732909212531994  1.0000
  C   C26       1.0  0.614828754303715  0.9318809312957032  0.4267090783372967  1.0000
  C   C27       1.0  0.5140235078588613  0.09792013856737421  0.5861834747629432  1.0000
  C   C28       1.0  0.48597649200472404  0.9020798611720189  0.4138165253875757  1.0000
  C   C29       1.0  0.7645631277218454  0.3316942583282867  0.5007005896362873  1.0000
  C   C30       1.0  0.23543687219583295  0.6683057423037028  0.49929941051687826  1.0000
  C   C31       1.0  0.8779175816411134  0.3386627180247445  0.5510418475704891  1.0000
  C   C32       1.0  0.12208241822247186  0.6613372817146486  0.4489581525800297  1.0000
  C   C33       1.0  0.1384735790968659  0.05419084969408102  0.4058916355163221  1.0000
  C   C34       1.0  0.8615264217209194  0.9458091509359884  0.5941083646365913  1.0000
  C   C35       1.0  0.19198201800010375  0.00480763859307836  0.46661671096928864  1.0000
  C   C36       1.0  0.8080179816476664  0.9951923609062571  0.533383288618561  1.0000
  C   C37       1.0  0.4379341961780383  0.19067786799919667  0.014724497012123586  1.0000
  C   C38       1.0  0.5620658035238245  0.8093221323927352  0.9852755025783724  1.0000
  C   C39       1.0  0.5036109662477275  0.4886721588819804  0.2303774192084423  1.0000
  C   C40       1.0  0.4963890345159647  0.5113278408554925  0.7696225809418245  1.0000
  C   C41       1.0  0.17969881577667152  0.34085147036136654  0.26886985142259134  1.0000
  C   C42       1.0  0.8203011840869139  0.6591485293780267  0.7311301487279276  1.0000
  C   C43       1.0  0.6961667010945163  0.3346150545860888  0.25807841963667627  1.0000
  C   C44       1.0  0.3038332985532536  0.6653849449132466  0.7419215799511731  1.0000
  C   C45       1.0  0.24848777896994767  0.5543854580383434  0.28117073023693007  1.0000
  C   C46       1.0  0.7515122206778223  0.445614541460992  0.7188292693509194  1.0000
  C   C47       1.0  0.5940538317606241  0.07209322626272457  0.6466351434988916  1.0000
  C   C48       1.0  0.4059461681029612  0.9279067734766684  0.3533648566516271  1.0000
  C   C49       1.0  0.02727001489434748  0.004571761137522723  0.34588170982319005  1.0000
  C   C50       1.0  0.9727299850233307  0.9954282394944668  0.6541182903299755  1.0000
  C   C51       1.0  0.977197192791801  0.8809825837592167  0.33072346352648374  1.0000
  C   C52       1.0  0.022802807071784132  0.11901741598017652  0.6692765366240351  1.0000
  C   C53       1.0  0.4202236597528542  0.982226514010846  0.6814435094694973  1.0000
  C   C54       1.0  0.5797763401107311  0.017773485728547093  0.31855649068102143  1.0000
  C   C55       1.0  0.3392694632408309  0.009800984841429725  0.6218998770316202  1.0000
  C   C56       1.0  0.6607305366768473  0.99019901579056  0.37810012312154534  1.0000
  C   C57       1.0  0.39501830693416307  0.09164584478353578  0.9502698742230244  1.0000
  C   C58       1.0  0.6049816938836223  0.9083541558465335  0.049730125929888985  1.0000
  C   C59       1.0  0.5478324798483666  0.013793723022162198  0.6943855733426115  1.0000
  C   C60       1.0  0.45216752006931177  0.9862062776098274  0.30561442681055406  1.0000
  C   C61       1.0  0.9834083446232621  0.33947564181210266  0.4508856043115446  1.0000
  C   C62       1.0  0.01659165524032324  0.6605243579272905  0.5491143958389743  1.0000
  C   C63       1.0  0.5542896240349783  0.6108788933667645  0.26139985035620483  1.0000
  C   C64       1.0  0.44571037561279153  0.38912110613257084  0.7386001492316445  1.0000
  C   C65       1.0  0.3469402271769666  0.2355551816509554  0.06253130592331006  1.0000
  C   C66       1.0  0.6530597726866187  0.7644448180884376  0.9374686942272087  1.0000
  C   C67       1.0  0.45221404315498104  0.44404375159161213  0.1528462475950364  1.0000
  C   C68       1.0  0.5477859567626974  0.5559562490403774  0.8471537525581291  1.0000
  C   C69       1.0  0.4754091742898782  0.04257644258004563  0.9061076423969957  1.0000
  C   C70       1.0  0.5245908255737072  0.9574235571593475  0.09389235775352316  1.0000
  C   C71       1.0  0.8650845657702504  0.031141617214284763  0.24407429620225152  1.0000
  C   C72       1.0  0.13491543414742782  0.9688583834177048  0.7559257039509141  1.0000
  C   C73       1.0  0.8730225411732031  0.8327218078598103  0.27234835625490394  1.0000
  C   C74       1.0  0.12697745959048914  0.16727819187766266  0.7276516438953627  1.0000
  C   C75       1.0  0.9699079420668459  0.0791058437685159  0.3018320790811434  1.0000
  C   C76       1.0  0.0300920578508325  0.9208941568634736  0.6981679210720222  1.0000
  C   C77       1.0  0.05880313185776916  0.35995534668604634  0.23813034131768693  1.0000
  C   C78       1.0  0.9411968680599091  0.6400446539459432  0.7618696588354785  1.0000
  C   C79       1.0  0.12793437819703588  0.5727486764812928  0.24922021308912537  1.0000
  C   C80       1.0  0.872065621450734  0.4272513230180426  0.750779786498724  1.0000
  C   C81       1.0  0.8169415374320521  0.9075331146105036  0.22893573727388292  1.0000
  C   C82       1.0  0.18305846243153318  0.09246688512888955  0.7710642628766359  1.0000
  C   C83       1.0  0.8699689612206154  0.3356999650052725  0.40159186988255485  1.0000
  C   C84       1.0  0.13003103869706276  0.664300035626717  0.5984081302706106  1.0000
  C   C85       1.0  0.5630745733001471  0.23790197512071987  0.034635280444046096  1.0000
  C   C86       1.0  0.4369254266175311  0.7620980255112696  0.9653647197091194  1.0000
  C   C87       1.0  0.03243924953201573  0.47569351198768756  0.22832617585995604  1.0000
  C   C88       1.0  0.9675607510699541  0.5243064884023242  0.771673823730288  1.0000
  C   C89       1.0  0.6001720068417535  0.09118933855275921  0.9258189170306982  1.0000
  C   C90       1.0  0.3998279930218318  0.908810661186634  0.07418108311982063  1.0000
  C   C91       1.0  0.5524331212438077  0.6889623254632843  0.21367695803110084  1.0000
  C   C92       1.0  0.44756687951988455  0.3110376742741886  0.7863230421191659  1.0000
  C   C93       1.0  0.6437459528452701  0.1882178125683979  0.990332407353537  1.0000
  C   C94       1.0  0.3562540470724082  0.8117821880635915  0.009667592799628545  1.0000
  C   C95       1.0  0.4506142279109435  0.5201279499907828  0.10455925640037683  1.0000
  C   C96       1.0  0.5493857719526417  0.4798720497486103  0.8954407437501419  1.0000
  C   C97       1.0  0.5015082226979267  0.6435951285133166  0.13650620146506398  1.0000
  C   C98       1.0  0.4984917779040432  0.3564048718766951  0.8634937981251801  1.0000
  C   C99       1.0  0.23464173393584317  0.2870058863182686  0.0239137225484859  1.0000
  C   C100      1.0  0.7653582659277421  0.7129941134211245  0.9760862776020329  1.0000
  C   C101      1.0  0.22566453786513394  0.3136391644615249  0.9545506418539995  1.0000
  C   C102      1.0  0.7743354620525443  0.6863608361704647  0.045449358299166125  1.0000
  C   C103      1.0  0.13446017944346775  0.30319470205360344  0.05838710328239921  1.0000
  C   C104      1.0  0.8655398213202244  0.6968052976838695  0.9416128968678675  1.0000
  C   C105      1.0  0.11664503848120543  0.3513391714870445  0.9188852757170779  1.0000
  C   C106      1.0  0.8833549612206575  0.6486608289048873  0.08111472387341824  1.0000
  C   C107      1.0  0.025929919053071366  0.3410507761922768  0.022963021431951638  1.0000
  C   C108      1.0  0.9740700808105139  0.6589492235471164  0.9770369787185672  1.0000
  C   C109      1.0  0.01588876569365362  0.3633714559677777  0.9523406740039857  1.0000
  C   C110      1.0  0.9841112342240247  0.6366285446642119  0.04765932614917999  1.0000
  C   C111      1.0  0.05292668603153239  0.9851455338223161  0.02833888107927039  1.0000
  C   C112      1.0  0.9470733138320528  0.014854465917076906  0.9716611190712483  1.0000
  C   C113      1.0  0.018709962043462317  0.9799142932362067  0.10185055173734245  1.0000
  C   C114      1.0  0.9812900376043077  0.02008570626312865  0.898149447850507  1.0000
  C   C115      1.0  0.12396792779740208  0.9500404618271544  0.15890948094031968  1.0000
  C   C116      1.0  0.8760320719044608  0.04995953856477741  0.8410905186501765  1.0000
  N   N1        1.0  0.3015526531979807  0.17777909963765914  0.47084473464425414  1.0000
  N   N2        1.0  0.6984473465038822  0.8222209007542727  0.529155264946242  1.0000
  N   N3        1.0  0.20508533071831778  0.15835871103648294  0.4086000811039132  1.0000
  N   N4        1.0  0.7949146691993606  0.8416412895955067  0.5913999190492524  1.0000
  N   N5        1.0  0.40617888414242487  0.3181761839081861  0.13625704573674563  1.0000
  N   N6        1.0  0.593821115505345  0.6818238155911494  0.8637429538511038  1.0000
  N   N7        1.0  0.7559055184466201  0.31703543882127344  0.21286216445498013  1.0000
  N   N8        1.0  0.24409448120114957  0.682964560678062  0.7871378351328693  1.0000
  O   O1        1.0  0.5473123700949789  0.34044801663709556  0.4154291202607075  1.0000
  O   O2        1.0  0.4526876297686065  0.6595519831022976  0.5845708798898114  1.0000
  O   O3        1.0  0.45017584563539176  0.32475355954372276  0.5552530393393564  1.0000
  O   O4        1.0  0.5498241542281935  0.6752464401956704  0.44474696081116233  1.0000
  O   O5        1.0  0.38765020868910766  0.17271865977251372  0.2031439126916514  1.0000
  O   O6        1.0  0.6123497912285707  0.8272813408594758  0.7968560874615142  1.0000
  Br  Br1       1.0  0.14236100945472674  0.35517475754566064  0.5941943602399326  1.0000
  Br  Br2       1.0  0.8576389901930432  0.6448252419536749  0.4058056393479169  1.0000
