data_image0
_chemical_formula_structural       H42C60N12O18
_chemical_formula_sum              "H42 C60 N12 O18"
_cell_length_a       11.253357252930563
_cell_length_b       11.537291090882704
_cell_length_c       12.317745083682826
_cell_angle_alpha    70.2770884861043
_cell_angle_beta     63.497004851369255
_cell_angle_gamma    86.77806832581736

_space_group_name_H-M_alt    "P 1"
_space_group_IT_number       1

loop_
  _space_group_symop_operation_xyz
  'x, y, z'

loop_
  _atom_site_type_symbol
  _atom_site_label
  _atom_site_symmetry_multiplicity
  _atom_site_fract_x
  _atom_site_fract_y
  _atom_site_fract_z
  _atom_site_occupancy
  H   H1        1.0  0.9075644028826623  0.9177203450396769  0.28490531808748043  1.0000
  H   H2        1.0  0.09243559714990995  0.08227965545727037  0.7150946825116612  1.0000
  H   H3        1.0  0.07213796019671039  0.9433171593437748  0.05676989463646097  1.0000
  H   H4        1.0  0.9278620398358619  0.056682841153172306  0.9432301059626808  1.0000
  H   H5        1.0  0.1744554601464637  0.7607650769746729  0.0038044900534282373  1.0000
  H   H6        1.0  0.8255445397608505  0.2392349226049623  0.996195510066918  1.0000
  H   H7        1.0  0.11886494097605205  0.5546682524255281  0.17853189347656503  1.0000
  H   H8        1.0  0.8811350590538969  0.44533174808061426  0.8214681063089486  1.0000
  H   H9        1.0  0.9550939222178225  0.5290298120064525  0.40474282219093377  1.0000
  H   H10       1.0  0.044906077812126785  0.47097018849968986  0.5952571775945797  1.0000
  H   H11       1.0  0.8986455688105495  0.8569034334311634  0.7022385698669591  1.0000
  H   H12       1.0  0.10135443109676447  0.1430965661484717  0.297761430253387  1.0000
  H   H13       1.0  0.9493002930169526  0.8422799792811281  0.8839796014014676  1.0000
  H   H14       1.0  0.05069970701299653  0.15772002122501438  0.11602039838404571  1.0000
  H   H15       1.0  0.8611312709006983  0.6554587741752269  0.08332515774992375  1.0000
  H   H16       1.0  0.13886872900661573  0.3445412254044083  0.9166748423704223  1.0000
  H   H17       1.0  0.7143024213221638  0.4861607857243181  0.10556870798159045  1.0000
  H   H18       1.0  0.28569757858515027  0.5138392138553172  0.8944312921387557  1.0000
  H   H19       1.0  0.6577086987679842  0.5033573508926543  0.9281509660585741  1.0000
  H   H20       1.0  0.3422913011393298  0.4966426486869807  0.07184903406177202  1.0000
  H   H21       1.0  0.47528491702586645  0.5016602830556072  0.6012760594169646  1.0000
  H   H22       1.0  0.5247150828814475  0.4983397165240279  0.3987239407033815  1.0000
  H   H23       1.0  0.23876275688685836  0.467795075427818  0.6521877155446635  1.0000
  H   H24       1.0  0.7612372431430908  0.5322049250783244  0.34781228424085003  1.0000
  H   H25       1.0  0.07851868430045743  0.6140389165147194  0.7313157736224579  1.0000
  H   H26       1.0  0.9214813157294917  0.385961083991423  0.2686842261630555  1.0000
  H   H27       1.0  0.15798730099087638  0.7911408706512212  0.7631760263352046  1.0000
  H   H28       1.0  0.8420126989164375  0.20885912892841416  0.23682397378514145  1.0000
  H   H29       1.0  0.39436088480869186  0.824830110447275  0.7126582738438023  1.0000
  H   H30       1.0  0.6056391152212575  0.1751698900588676  0.28734172594171087  1.0000
  H   H31       1.0  0.4986442347498044  0.01732426779927797  0.34835148800164323  1.0000
  H   H32       1.0  0.5013557652801448  0.9826757327068645  0.6516485117838702  1.0000
  H   H33       1.0  0.5889805196708254  0.7330781322231059  0.17720266408960783  1.0000
  H   H34       1.0  0.41101948035912383  0.26692186828303643  0.8227973356959056  1.0000
  H   H35       1.0  0.18046038539042908  0.7508110850563977  0.4439901437651548  1.0000
  H   H36       1.0  0.8195396145168848  0.2491889145232374  0.5560098563551915  1.0000
  H   H37       1.0  0.2531779033631922  0.9817462986755876  0.13157154186484848  1.0000
  H   H38       1.0  0.7468220966667571  0.018253701830554806  0.8684284579206649  1.0000
  H   H39       1.0  0.3570218071094473  0.822185902564382  0.03354647508366224  1.0000
  H   H40       1.0  0.642978192920502  0.1778140979417603  0.9664535247018512  1.0000
  H   H41       1.0  0.3983790507230053  0.16061686612684872  0.09633519627374754  1.0000
  H   H42       1.0  0.6016209491869319  0.8393831334435913  0.9036648046602269  1.0000
  C   C1        1.0  0.6869584095080534  0.6994784726700883  0.5013654884647645  1.0000
  C   C2        1.0  0.3130415905218956  0.3005215278360541  0.49863451132074904  1.0000
  C   C3        1.0  0.852425667216387  0.6919653047439701  0.5827875857320921  1.0000
  C   C4        1.0  0.14757433281356225  0.3080346957621723  0.4172124140534212  1.0000
  C   C5        1.0  0.6117667792547803  0.6861026961374138  0.7273807121531961  1.0000
  C   C6        1.0  0.3882332207751688  0.3138973043687285  0.27261928763231746  1.0000
  C   C7        1.0  0.9221008552209772  0.722325036807907  0.3558484071030636  1.0000
  C   C8        1.0  0.0778991448089722  0.27767496369823547  0.6441515926824499  1.0000
  C   C9        1.0  0.9558646757830489  0.8394354130476839  0.26013112261878707  1.0000
  C   C10       1.0  0.04413532412426517  0.16056458653195127  0.739868877501559  1.0000
  C   C11       1.0  0.047363372966599836  0.853025712435469  0.13319004360529613  1.0000
  C   C12       1.0  0.9526366270633492  0.14697428807067334  0.8668099561802174  1.0000
  C   C13       1.0  0.10506322832356953  0.7503348796070861  0.10354107092293993  1.0000
  C   C14       1.0  0.8949367715837444  0.24966511997254895  0.8964589291974063  1.0000
  C   C15       1.0  0.07311972822407894  0.6344928796141206  0.20139910436575462  1.0000
  C   C16       1.0  0.9268802716832352  0.3655071199655145  0.7986008957545915  1.0000
  C   C17       1.0  0.9811860642074496  0.619585353872259  0.3286090572539487  1.0000
  C   C18       1.0  0.018813935699864226  0.3804146457073761  0.6713909428663973  1.0000
  C   C19       1.0  0.7765306684416594  0.6803960448134623  0.8051794927436344  1.0000
  C   C20       1.0  0.22346933158828966  0.31960395569268  0.19482050704187895  1.0000
  C   C21       1.0  0.8578485800172629  0.7766309074516482  0.7913548930466908  1.0000
  C   C22       1.0  0.14215141989005095  0.22336909212798706  0.20864510707365527  1.0000
  C   C23       1.0  0.8874757563504396  0.7672114448006067  0.8923732428721834  1.0000
  C   C24       1.0  0.11252424355687433  0.23278855477902835  0.10762675724816272  1.0000
  C   C25       1.0  0.8370797886690226  0.6624257509425818  0.005043219339447089  1.0000
  C   C26       1.0  0.16292021123829142  0.33757424863705343  0.994956780780899  1.0000
  C   C27       1.0  0.754767383523378  0.567553745465462  0.01778940050846463  1.0000
  C   C28       1.0  0.2452326165065712  0.4324462550406805  0.9822105992770486  1.0000
  C   C29       1.0  0.7233068157091932  0.5762951559543554  0.9180615830742507  1.0000
  C   C30       1.0  0.27669318432075607  0.42370484455178686  0.08193841671126272  1.0000
  C   C31       1.0  0.4500706643233638  0.6669179233298816  0.6514551971286557  1.0000
  C   C32       1.0  0.5499293355839503  0.3330820762497535  0.3485448029916904  1.0000
  C   C33       1.0  0.40623042706768175  0.5660841148533041  0.6351169864517997  1.0000
  C   C34       1.0  0.5937695728396322  0.4339158847263311  0.3648830136685465  1.0000
  C   C35       1.0  0.2726176662388692  0.5475760811864748  0.663478142351135  1.0000
  C   C36       1.0  0.7273823336684447  0.4524239183931603  0.336521857769211  1.0000
  C   C37       1.0  0.1827441930744175  0.6283764945145253  0.7093210760093663  1.0000
  C   C38       1.0  0.8172558069555317  0.3716235059916171  0.29067892377614724  1.0000
  C   C39       1.0  0.22742702516029742  0.7282905020273233  0.7263285973522476  1.0000
  C   C40       1.0  0.7725729747470167  0.271709497552312  0.2736714027680986  1.0000
  C   C41       1.0  0.36114387999843084  0.7483363732022213  0.6966842932167815  1.0000
  C   C42       1.0  0.6388561210232281  0.2516636272939893  0.3033157061644276  1.0000
  C   C43       1.0  0.33222250169441525  0.8910589825280127  0.40096928600507314  1.0000
  C   C44       1.0  0.6677774992046086  0.10894101704169076  0.5990307137109684  1.0000
  C   C45       1.0  0.46628183577010845  0.937668550759933  0.3365146022578971  1.0000
  C   C46       1.0  0.5337181642598408  0.06233144974620943  0.6634853975276164  1.0000
  C   C47       1.0  0.5564360133947359  0.8797732599080453  0.256620605105482  1.0000
  C   C48       1.0  0.4435639865152011  0.12022673966239458  0.7433793958284926  1.0000
  C   C49       1.0  0.5172018253882699  0.7772128472661773  0.24068399165113372  1.0000
  C   C50       1.0  0.4827981745190442  0.22278715231345775  0.7593160084692123  1.0000
  C   C51       1.0  0.38222522258192376  0.7322064773648426  0.3111353238816921  1.0000
  C   C52       1.0  0.6177747773253902  0.2677935222147926  0.6888646762386541  1.0000
  C   C53       1.0  0.2861368274576336  0.7867724983615119  0.39198465606796334  1.0000
  C   C54       1.0  0.7138631724496804  0.21322750121812328  0.6080153440523829  1.0000
  C   C55       1.0  0.36132449892840696  0.9896542676940214  0.07429934977619898  1.0000
  C   C56       1.0  0.6386755009789071  0.010345731885613666  0.9257006503441472  1.0000
  C   C57       1.0  0.41924646986164144  0.9004460972725121  0.01896780567560526  1.0000
  C   C58       1.0  0.5807535300456725  0.09955390230712301  0.981032194444741  1.0000
  C   C59       1.0  0.44211160305686364  0.08951663422361808  0.05512138920769844  1.0000
  C   C60       1.0  0.5578883968504504  0.9104833653560169  0.9448786109126479  1.0000
  N   N1        1.0  0.5871422306858504  0.6839084255076255  0.6259665213585823  1.0000
  N   N2        1.0  0.41285776922146344  0.31609157407200955  0.3740334787617638  1.0000
  N   N3        1.0  0.8174445215532913  0.7072170997939948  0.48415032336429703  1.0000
  N   N4        1.0  0.18255547835402275  0.29278289978564037  0.5158496767560492  1.0000
  N   N5        1.0  0.7463200124129824  0.6890546472800723  0.700585186868871  1.0000
  N   N6        1.0  0.25367998749695464  0.31094535229036785  0.2994148140651034  1.0000
  N   N7        1.0  0.23679882612196362  0.9579368183538192  0.47934725659556465  1.0000
  N   N8        1.0  0.7632011737853504  0.04206318122581593  0.5206527435247814  1.0000
  N   N9        1.0  0.33986923429764043  0.6227145341594589  0.29647754135502064  1.0000
  N   N10       1.0  0.6601307657349319  0.37728546633748844  0.7035224592441212  1.0000
  N   N11       1.0  0.6980326473121657  0.9297155144586734  0.18551915624438103  1.0000
  N   N12       1.0  0.30196735259514834  0.07028448512096167  0.8144808438759651  1.0000
  O   O1        1.0  0.661306020308657  0.7047813258970639  0.4129430414165621  1.0000
  O   O2        1.0  0.33869397959865694  0.29521867368257126  0.5870569587037839  1.0000
  O   O3        1.0  0.9676069303618755  0.6840623885821902  0.5668958197343996  1.0000
  O   O4        1.0  0.03239306966807365  0.31593761192395214  0.43310418005111395  1.0000
  O   O5        1.0  0.5224395494448764  0.6849576374034756  0.8315591742180372  1.0000
  O   O6        1.0  0.4775604505850729  0.31504236310266687  0.1684408255674763  1.0000
  O   O7        1.0  0.11647380726977649  0.9312410629266674  0.5181941835161639  1.0000
  O   O8        1.0  0.8835261926375376  0.06875893665296774  0.4818058166041822  1.0000
  O   O9        1.0  0.2838574353483044  0.03832524867259206  0.5003483821519403  1.0000
  O   O10       1.0  0.7161425645590096  0.9616747509070429  0.49965161796840574  1.0000
  O   O11       1.0  0.22905307526203164  0.565341831444445  0.37968683197314884  1.0000
  O   O12       1.0  0.7709469247679176  0.43465816906169735  0.6203131678123647  1.0000
  O   O13       1.0  0.41769653165435955  0.5941249671224664  0.2023483361457419  1.0000
  O   O14       1.0  0.5823034682529544  0.4058750324571686  0.7976516639746043  1.0000
  O   O15       1.0  0.7755048058844065  0.8801183522001278  0.11055565600259204  1.0000
  O   O16       1.0  0.22449519414554261  0.11988164830601451  0.8894443437829214  1.0000
  O   O17       1.0  0.7308196429023837  0.01966403984870263  0.20408048650789573  1.0000
  O   O18       1.0  0.26918035700493037  0.9803359597309327  0.7959195136124502  1.0000
