data_image0
_chemical_formula_structural       H24C48N6O12S6Cl6
_chemical_formula_sum              "H24 C48 N6 O12 S6 Cl6"
_cell_length_a       7.111840075112756
_cell_length_b       13.80500134147489
_cell_length_c       14.728596814915019
_cell_angle_alpha    115.54930713714002
_cell_angle_beta     103.51310609059865
_cell_angle_gamma    94.0308128307292

_space_group_name_H-M_alt    "P 1"
_space_group_IT_number       1

loop_
  _space_group_symop_operation_xyz
  'x, y, z'

loop_
  _atom_site_type_symbol
  _atom_site_label
  _atom_site_symmetry_multiplicity
  _atom_site_fract_x
  _atom_site_fract_y
  _atom_site_fract_z
  _atom_site_occupancy
  H   H1        1.0  0.7261779617533732  0.5310791475323099  0.26298729716218067  1.0000
  H   H2        1.0  0.2738220380943402  0.4689208524820583  0.7370127032492204  1.0000
  H   H3        1.0  0.5339232756949037  0.34007226504193705  0.4048209548422526  1.0000
  H   H4        1.0  0.4660767237229207  0.6599277345937462  0.5951790447819876  1.0000
  H   H5        1.0  0.40758015225472455  0.19743296165273727  0.06692182969589373  1.0000
  H   H6        1.0  0.5924198477021253  0.8025670390873614  0.9330781707146322  1.0000
  H   H7        1.0  0.0977266232532239  0.8772315392749515  0.023479375381255597  1.0000
  H   H8        1.0  0.9022733765944897  0.12276846073941675  0.9765206250301456  1.0000
  H   H9        1.0  0.8372294013110263  0.571609897547305  0.998218280579528  1.0000
  H   H10       1.0  0.16277059951295658  0.4283901020836697  0.001781719046235063  1.0000
  H   H11       1.0  0.9208996979491023  0.5872324871514042  0.7239844954246341  1.0000
  H   H12       1.0  0.07910030200774754  0.4127675135886945  0.2760155049858919  1.0000
  H   H13       1.0  0.15098031714931592  0.8353115203928017  0.6142859275406104  1.0000
  H   H14       1.0  0.8490196822685085  0.16468847924288146  0.3857140720836299  1.0000
  H   H15       1.0  0.9686234928226909  0.6907397473761375  0.6514531426621872  1.0000
  H   H16       1.0  0.03137650670427009  0.3092602529852761  0.3485468569611778  1.0000
  H   H17       1.0  0.14745807871952596  0.99990309379956  0.3806941188866678  1.0000
  H   H18       1.0  0.8525419206982986  9.690583612327224e-05  0.6193058807375724  1.0000
  H   H19       1.0  0.16767175074031396  0.9472859913434294  0.19066352195564562  1.0000
  H   H20       1.0  0.8323282487866468  0.05271400901798415  0.8093364776677193  1.0000
  H   H21       1.0  0.5100556509295341  0.21108002439614154  0.7396630765355224  1.0000
  H   H22       1.0  0.4899443489181794  0.7889199756182267  0.26033692387587876  1.0000
  H   H23       1.0  0.6573284816050043  0.40791940984858266  0.8949038503321932  1.0000
  H   H24       1.0  0.3426715183518456  0.5920805908915161  0.10509615007833278  1.0000
  C   C1        1.0  0.570062126896278  0.36458967703462236  0.15735268626270715  1.0000
  C   C2        1.0  0.42993787295143543  0.6354103229797458  0.842647314148694  1.0000
  C   C3        1.0  0.6528652910586371  0.4549309650622742  0.25526646087128596  1.0000
  C   C4        1.0  0.34713471030437115  0.545069035673116  0.744733539540763  1.0000
  C   C5        1.0  0.640078937713574  0.44313030843176127  0.3430799847790787  1.0000
  C   C6        1.0  0.35992106181338684  0.5568696919296522  0.6569200148442863  1.0000
  C   C7        1.0  0.5435979328449636  0.3473891907988262  0.33542902274994263  1.0000
  C   C8        1.0  0.456402067979019  0.6526108088321484  0.6645709768758203  1.0000
  C   C9        1.0  0.4588985933822738  0.26083962562598695  0.23512447954481672  1.0000
  C   C10       1.0  0.5411014064654397  0.7391603743883812  0.7648755208665845  1.0000
  C   C11       1.0  0.4732836514518249  0.2662127714080986  0.14459591347869413  1.0000
  C   C12       1.0  0.5267163483958885  0.7337872286062694  0.855404086932707  1.0000
  C   C13       1.0  0.022950954989946856  0.7385399851028398  0.8691399703585715  1.0000
  C   C14       1.0  0.9770490448577667  0.26146001491152854  0.13086003005282973  1.0000
  C   C15       1.0  0.036526459345894206  0.7898708550644274  0.9765184131264067  1.0000
  C   C16       1.0  0.9634735400719302  0.21012914457125575  0.023481586497833412  1.0000
  C   C17       1.0  0.9702153530774938  0.7306912835212285  0.02419964408463306  1.0000
  C   C18       1.0  0.029784648176377836  0.26930871648843135  0.975800356328291  1.0000
  C   C19       1.0  0.8864623628454159  0.6186425073937978  0.9617158603702833  1.0000
  C   C20       1.0  0.11353763668154505  0.381357492967616  0.038284139253081745  1.0000
  C   C21       1.0  0.8653151701525869  0.5662179788693487  0.8530568765832713  1.0000
  C   C22       1.0  0.13468483110128515  0.43378202114031106  0.14694312382965283  1.0000
  C   C23       1.0  0.9362842911791671  0.6268562226375048  0.8080618130197321  1.0000
  C   C24       1.0  0.06371570866854635  0.37314377737686344  0.19193818739166904  1.0000
  C   C25       1.0  0.09592999830847815  0.7988202119531947  0.8197459027451669  1.0000
  C   C26       1.0  0.9040700015392354  0.2011797880611735  0.1802540976662343  1.0000
  C   C27       1.0  0.26549974672665466  0.9364222226207758  0.7841975108775407  1.0000
  C   C28       1.0  0.7345002531210588  0.0635777773935924  0.21580248953386044  1.0000
  C   C29       1.0  0.1593389998209328  0.8451727408047559  0.6925369562412972  1.0000
  C   C30       1.0  0.8406609995968917  0.1548272588309272  0.307463043382943  1.0000
  C   C31       1.0  0.06309909533828671  0.7672266677177776  0.7134611959116379  1.0000
  C   C32       1.0  0.9369009040795377  0.23277333191790553  0.2865388037126022  1.0000
  C   C33       1.0  0.9886445126505236  0.7866974489352656  0.13636416116189184  1.0000
  C   C34       1.0  0.01135548719718999  0.21330255107910256  0.8636358392495093  1.0000
  C   C35       1.0  0.9673521700889524  0.8377485502644602  0.31653680623107694  1.0000
  C   C36       1.0  0.032647829328872106  0.16225144937122304  0.6834631933931632  1.0000
  C   C37       1.0  0.0771536075284018  0.9214937623447533  0.3127456416284882  1.0000
  C   C38       1.0  0.9228463918894227  0.07850623729092987  0.687254357995752  1.0000
  C   C39       1.0  0.08807353570561392  0.8919810303198549  0.20980195319734793  1.0000
  C   C40       1.0  0.911926464251236  0.10801897042024398  0.7901980472131782  1.0000
  C   C41       1.0  0.7681809132078041  0.45151755485196077  0.7883591011041192  1.0000
  C   C42       1.0  0.23181908674904592  0.548482445888138  0.21164089930640692  1.0000
  C   C43       1.0  0.6275785089994063  0.26380394558832687  0.6410237315900915  1.0000
  C   C44       1.0  0.37242149052755463  0.7361960547730868  0.3589762680332734  1.0000
  C   C45       1.0  0.5911134795441243  0.27588673718740364  0.7327142024847382  1.0000
  C   C46       1.0  0.40888652030358924  0.7241132628269645  0.2672857979266629  1.0000
  C   C47       1.0  0.6713818595306913  0.38276708875056586  0.8162942857812244  1.0000
  C   C48       1.0  0.3286181398871331  0.6172329108851173  0.18370571384301568  1.0000
  N   N1        1.0  0.5878675441810991  0.3733224725475565  0.06347322788162671  1.0000
  N   N2        1.0  0.4121324556666144  0.6266775274668117  0.9365267725297745  1.0000
  N   N3        1.0  0.7350443183725411  0.5352706846801782  0.4477411550158207  1.0000
  N   N4        1.0  0.2649556811544197  0.4647293156812353  0.5522588446075444  1.0000
  N   N5        1.0  0.35082745148332717  0.1600710361100171  0.22492404740152583  1.0000
  N   N6        1.0  0.6491725493406557  0.8399289635209577  0.7750759522242374  1.0000
  O   O1        1.0  0.5333321722883991  0.2888917837809505  0.9783010281363639  1.0000
  O   O2        1.0  0.46666782712942534  0.7111082158547325  0.021698971487876292  1.0000
  O   O3        1.0  0.6574858790951829  0.4648239205036582  0.07621946127930264  1.0000
  O   O4        1.0  0.3425141218379365  0.5351760798530472  0.9237805383455855  1.0000
  O   O5        1.0  0.8135978517981214  0.620884058106733  0.4525292959772884  1.0000
  O   O6        1.0  0.18640214761970314  0.37911594152895023  0.5474707036469517  1.0000
  O   O7        1.0  0.7326405093370464  0.5211235047808612  0.5254520670544499  1.0000
  O   O8        1.0  0.2673594905106672  0.478876495233507  0.47454793335695133  1.0000
  O   O9        1.0  0.34280227725457496  0.1570936995981058  0.3067382659298549  1.0000
  O   O10       1.0  0.6571977236785443  0.8429063007585994  0.6932617336950331  1.0000
  O   O11       1.0  0.2717937151663394  0.08504018908937686  0.13456016018642522  1.0000
  O   O12       1.0  0.7282062842514851  0.9149598105463063  0.8654398394378148  1.0000
  S   S1        1.0  0.24689157897335537  0.9279303645818977  0.8951592625311777  1.0000
  S   S2        1.0  0.7531084218506273  0.072069635049077  0.10484073709458544  1.0000
  S   S3        1.0  0.8785170142829147  0.723625807202816  0.19571582880414454  1.0000
  S   S4        1.0  0.12148298513490981  0.2763741924328672  0.8042841708200957  1.0000
  S   S5        1.0  0.7596457340136755  0.3823677685031746  0.6563218990717401  1.0000
  S   S6        1.0  0.2403542655132855  0.617632231858239  0.343678100551625  1.0000
  Cl  Cl1       1.0  0.4048304726999976  0.04933185607267253  0.7970288297549081  1.0000
  Cl  Cl2       1.0  0.595169527147716  0.9506681439416957  0.2029711706564931  1.0000
  Cl  Cl3       1.0  0.9149485690854005  0.8366267239200743  0.42334210952109275  1.0000
  Cl  Cl4       1.0  0.08505143076231306  0.16337327609429395  0.5766578908903085  1.0000
  Cl  Cl5       1.0  0.5556612412454714  0.1507795099589316  0.5210898396005463  1.0000
  Cl  Cl6       1.0  0.4443387581723531  0.8492204896767515  0.4789101600236938  1.0000
