data_image0
_chemical_formula_structural       H44C32N20O8
_chemical_formula_sum              "H44 C32 N20 O8"
_cell_length_a       10.638269904669988
_cell_length_b       6.965089037492384
_cell_length_c       13.647912951397199
_cell_angle_alpha    90.0
_cell_angle_beta     91.44002335364029
_cell_angle_gamma    90.0

_space_group_name_H-M_alt    "P 1"
_space_group_IT_number       1

loop_
  _space_group_symop_operation_xyz
  'x, y, z'

loop_
  _atom_site_type_symbol
  _atom_site_label
  _atom_site_symmetry_multiplicity
  _atom_site_fract_x
  _atom_site_fract_y
  _atom_site_fract_z
  _atom_site_occupancy
  H   H1        1.0  0.5409871584553546  0.3905178161195867  0.12197191010675616  1.0000
  H   H2        1.0  0.4590128421796527  0.8905178162995999  0.3780280902281355  1.0000
  H   H3        1.0  0.45901284194568076  0.6094821828047079  0.8780280899810988  1.0000
  H   H4        1.0  0.5409871582213827  0.1094821840604265  0.6219719098597194  1.0000
  H   H5        1.0  0.06522853299210385  0.5672160066775485  0.23194205923902442  1.0000
  H   H6        1.0  0.9347714667026058  0.06721600793326714  0.2680579410760265  1.0000
  H   H7        1.0  0.934771466468634  0.4327839922467461  0.7680579408289898  1.0000
  H   H8        1.0  0.06522853369842962  0.9327839924267592  0.7319420590118286  1.0000
  H   H9        1.0  0.22125288614248673  0.5838182682391081  0.19252851329588253  1.0000
  H   H10       1.0  0.7787471135522228  0.08381826949482674  0.3074714870191684  1.0000
  H   H11       1.0  0.778747113318251  0.41618173068518644  0.8074714867721318  1.0000
  H   H12       1.0  0.2212528859085148  0.9161817308651997  0.6925285130488459  1.0000
  H   H13       1.0  0.7690314161600649  0.2738665291616648  0.08516711275561828  1.0000
  H   H14       1.0  0.2309685835346448  0.7738665293416781  0.41483288755943265  1.0000
  H   H15       1.0  0.23096858330067296  0.7261334711983616  0.914832887312396  1.0000
  H   H16       1.0  0.7690314168663905  0.22613347101834835  0.5851671125284224  1.0000
  H   H17       1.0  0.8568797697348491  0.4042798526827991  0.9982155842783962  1.0000
  H   H18       1.0  0.1431202304322144  0.9042798528628122  0.5017844155624221  1.0000
  H   H19       1.0  0.14312023066618626  0.5957201462414955  0.001784415809458803  1.0000
  H   H20       1.0  0.8568797699688211  0.09572014606148227  0.49821558452543274  1.0000
  H   H21       1.0  0.8960469610394703  0.4210185590184146  0.12518586317885713  1.0000
  H   H22       1.0  0.10395303865706353  0.9210185591984279  0.37481413640351813  1.0000
  H   H23       1.0  0.10395303936156505  0.5789814413416119  0.8748141369089978  1.0000
  H   H24       1.0  0.8960469608036741  0.07898144116159858  0.6251858636644961  1.0000
  H   H25       1.0  0.87451403241763  0.016096196243366775  0.04239504367007529  1.0000
  H   H26       1.0  0.12548596821737737  0.51609619642338  0.4576049566648164  1.0000
  H   H27       1.0  0.12548596798340547  0.9839038041166597  0.9576049564177798  1.0000
  H   H28       1.0  0.8745140321836581  0.48390380393664645  0.5423950434230386  1.0000
  H   H29       1.0  0.9515244693021966  0.822943777049493  0.10340370674671891  1.0000
  H   H30       1.0  0.048475530394337225  0.3229437768694797  0.39659629283565634  1.0000
  H   H31       1.0  0.048475530158541065  0.17705622331053344  0.8965962933212953  1.0000
  H   H32       1.0  0.9515244690682249  0.6770562234905466  0.6034037064996822  1.0000
  H   H33       1.0  0.9152140315136649  0.8077323175218852  0.9762544880423842  1.0000
  H   H34       1.0  0.08478596865339866  0.307732317341872  0.5237455117984341  1.0000
  H   H35       1.0  0.08478596888737056  0.19226768283814122  0.023745512045470773  1.0000
  H   H36       1.0  0.9152140308091634  0.6922676815824226  0.47625448753690447  1.0000
  H   H37       1.0  0.46424263843527763  0.7452837274667325  0.12417906579577911  1.0000
  H   H38       1.0  0.535757361259432  0.2452837272867193  0.3758209345192718  1.0000
  H   H39       1.0  0.5357573610254601  0.2547162728932939  0.8758209342722352  1.0000
  H   H40       1.0  0.46424263820130574  0.7547162730733071  0.6241790655487425  1.0000
  H   H41       1.0  0.614521258664195  0.01465085506455187  0.08640869361160763  1.0000
  H   H42       1.0  0.38547874103051466  0.5146508552445651  0.41359130670344324  1.0000
  H   H43       1.0  0.3854787407965427  0.9853491438597427  0.9135913064564065  1.0000
  H   H44       1.0  0.6145212593705208  0.48534914367972953  0.5864086933844117  1.0000
  C   C1        1.0  0.27622857636255005  0.2276981057188293  0.17717505869557135  1.0000
  C   C2        1.0  0.7237714233321595  0.7276981058988425  0.3228249416194795  1.0000
  C   C3        1.0  0.7237714230981876  0.7723018946411971  0.8228249413724429  1.0000
  C   C4        1.0  0.2762285770688759  0.2723018944611839  0.6771750584683754  1.0000
  C   C5        1.0  0.2869195990055981  0.024960233683185003  0.16847895742547048  1.0000
  C   C6        1.0  0.7130804006891115  0.5249602338631982  0.33152104288958045  1.0000
  C   C7        1.0  0.7130804013954374  0.9750397666768414  0.8315210426623845  1.0000
  C   C8        1.0  0.2869195987716262  0.4750397664968282  0.6684789571784339  1.0000
  C   C9        1.0  0.15281353697642494  0.3099870710019421  0.2047110407588743  1.0000
  C   C10       1.0  0.8471864627182846  0.8099870711819552  0.2952889595561766  1.0000
  C   C11       1.0  0.8471864634246105  0.6900129293580843  0.7952889593289807  1.0000
  C   C12       1.0  0.15281353674245307  0.19001292917807114  0.7047110405118376  1.0000
  C   C13       1.0  0.642034393999058  0.8647915019573913  0.08598946419899334  1.0000
  C   C14       1.0  0.3579656066359493  0.3647915017773782  0.4140105361358983  1.0000
  C   C15       1.0  0.3579656064019774  0.13520849840263507  0.9140105358888616  1.0000
  C   C16       1.0  0.6420343937650862  0.6352084985826483  0.5859894639519566  1.0000
  C   C17       1.0  0.7559971594947557  0.7732889631428332  0.06949853535023778  1.0000
  C   C18       1.0  0.24400284020177815  0.2732889643985519  0.4305014642321374  1.0000
  C   C19       1.0  0.24400284090627966  0.22671103578146135  0.9305014647376171  1.0000
  C   C20       1.0  0.7559971592589596  0.7267110359614746  0.5694985358358767  1.0000
  C   C21       1.0  0.7300446717915152  0.5752546907056508  0.08088169404585628  1.0000
  C   C22       1.0  0.2699553279031944  0.07525469052563755  0.41911830626919455  1.0000
  C   C23       1.0  0.2699553286095201  0.4247453096543757  0.9191183060419987  1.0000
  C   C24       1.0  0.7300446715575434  0.924745309834389  0.5808816937988196  1.0000
  C   C25       1.0  0.8173114422489608  0.40991398740652807  0.07183077635124639  1.0000
  C   C26       1.0  0.1826885583878708  0.9099139875865413  0.42816922325096957  1.0000
  C   C27       1.0  0.1826885581538989  0.5900860129534984  0.9281692230039329  1.0000
  C   C28       1.0  0.8173114420131645  0.0900860127734851  0.5718307768368853  1.0000
  C   C29       1.0  0.8802110597284458  0.8594098665183855  0.046634613688861834  1.0000
  C   C30       1.0  0.11978893996626372  0.35940986633837235  0.4533653866261891  1.0000
  C   C31       1.0  0.1197889406725895  0.14059013384164087  0.9533653863989932  1.0000
  C   C32       1.0  0.8802110594944741  0.6405901325859222  0.5466346134418252  1.0000
  N   N1        1.0  0.3706197620395979  0.3428070735560372  0.16063915968256925  1.0000
  N   N2        1.0  0.6293802385954095  0.8428070723003185  0.3393608406523224  1.0000
  N   N3        1.0  0.6293802383614375  0.6571929268039892  0.8393608404052857  1.0000
  N   N4        1.0  0.370619761805626  0.15719292662397602  0.6606391594355326  1.0000
  N   N5        1.0  0.30386484415489967  0.8606565440487457  0.15803593178708647  1.0000
  N   N6        1.0  0.69613515553981  0.3606565438687325  0.3419640685279644  1.0000
  N   N7        1.0  0.6961351553058381  0.13934345631128067  0.8419640682809277  1.0000
  N   N8        1.0  0.3038648448612254  0.6393434564912939  0.6580359315598906  1.0000
  N   N9        1.0  0.1449275717671747  0.5014758592745153  0.2075776846186873  1.0000
  N   N10       1.0  0.855072427927535  0.0014758590945020981  0.29242231569636357  1.0000
  N   N11       1.0  0.8550724276935631  0.49852414108551113  0.792422315449327  1.0000
  N   N12       1.0  0.14492757247350047  0.9985241412655244  0.7075776843914914  1.0000
  N   N13       1.0  0.5564649485628422  0.7276144170907222  0.105745677003696  1.0000
  N   N14       1.0  0.4435350520721651  0.22761441691070894  0.3942543233311956  1.0000
  N   N15       1.0  0.4435350518381932  0.2723855818335724  0.8942543230841589  1.0000
  N   N16       1.0  0.5564649483288703  0.7723855820135855  0.6057456767566595  1.0000
  N   N17       1.0  0.6084836174989305  0.5512625494565615  0.10300579196782321  1.0000
  N   N18       1.0  0.391516382195779  0.051262549276548344  0.3969942083472277  1.0000
  N   N19       1.0  0.3915163829021048  0.44873745090346484  0.8969942081200317  1.0000
  N   N20       1.0  0.6084836172649587  0.9487374510834781  0.6030057917207866  1.0000
  O   O1        1.0  0.4782081159863465  0.26095014438672026  0.13694906125271133  1.0000
  O   O2        1.0  0.5217918837101874  0.7609501445667334  0.36305093832966384  1.0000
  O   O3        1.0  0.5217918844165131  0.7390498545375743  0.863050938102468  1.0000
  O   O4        1.0  0.47820811575055033  0.23904985435756113  0.6369490617383504  1.0000
  O   O5        1.0  0.06460126514901762  0.1973586615476921  0.2220172037534652  1.0000
  O   O6        1.0  0.9353987345475164  0.6973586617277053  0.27798279582891  1.0000
  O   O7        1.0  0.93539873431172  0.8026413373766025  0.7779827963145489  1.0000
  O   O8        1.0  0.06460126491322146  0.3026413371965893  0.7220172042391043  1.0000
