data_image0
_chemical_formula_structural       H64C80N12O12
_chemical_formula_sum              "H64 C80 N12 O12"
_cell_length_a       31.718795307847248
_cell_length_b       4.480780253300067
_cell_length_c       11.55744558718968
_cell_angle_alpha    90.0
_cell_angle_beta     98.74767625851834
_cell_angle_gamma    90.0

_space_group_name_H-M_alt    "P 1"
_space_group_IT_number       1

loop_
  _space_group_symop_operation_xyz
  'x, y, z'

loop_
  _atom_site_type_symbol
  _atom_site_label
  _atom_site_symmetry_multiplicity
  _atom_site_fract_x
  _atom_site_fract_y
  _atom_site_fract_z
  _atom_site_occupancy
  H   H1        1.0  0.24324653369085142  0.887917493179857  0.5473483525121244  1.0000
  H   H2        1.0  0.7567534663953263  0.38791749466398096  0.9526516481545062  1.0000
  H   H3        1.0  0.7567534663122959  0.1120825060836492  0.4526516477724824  1.0000
  H   H4        1.0  0.2432465336078211  0.6120825068312794  0.047348352130100704  1.0000
  H   H5        1.0  0.2619468343953194  0.013335429684593924  0.16888778831777862  1.0000
  H   H6        1.0  0.7380531655247976  0.5133354304322241  0.33111221158480447  1.0000
  H   H7        1.0  0.7380531656078279  0.9866645695789121  0.8311122119668282  1.0000
  H   H8        1.0  0.26194683447834977  0.48666456883128206  0.6688877886998023  1.0000
  H   H9        1.0  0.18548148420205687  0.12347527634110674  0.17666885640090982  1.0000
  H   H10       1.0  0.8145185160370305  0.6234752770887368  0.32333114364185217  1.0000
  H   H11       1.0  0.814518515803688  0.8765247229223994  0.8233311430195667  1.0000
  H   H12       1.0  0.18548148396611677  0.37652472440652346  0.6766688566427547  1.0000
  H   H13       1.0  0.31923782039834425  0.2622623546723847  0.3058623825631822  1.0000
  H   H14       1.0  0.6807621795217729  0.7622623554200149  0.19413761733940094  1.0000
  H   H15       1.0  0.6807621796048031  0.7377376445911215  0.6941376177214246  1.0000
  H   H16       1.0  0.3192378204839719  0.2377376438434913  0.8058623820810756  1.0000
  H   H17       1.0  0.16512776339921525  0.9634472739029233  0.5513959277333323  1.0000
  H   H18       1.0  0.8348722366869624  0.4634472731552932  0.9486040729332982  1.0000
  H   H19       1.0  0.8348722366039322  0.03655272759233697  0.4486040725512745  1.0000
  H   H20       1.0  0.16512776331618492  0.5365527261082129  0.05139592735130868  1.0000
  H   H21       1.0  0.4200325509711658  0.25642037213358  0.6018029532098819  1.0000
  H   H22       1.0  0.5799674491176092  0.756420370649456  0.8981970465926183  1.0000
  H   H23       1.0  0.579967449034579  0.7435796293616803  0.3981970462105946  1.0000
  H   H24       1.0  0.42003255088553804  0.2435796286140502  0.1018029536919885  1.0000
  H   H25       1.0  0.11259998682849803  0.7051608049006469  0.4056650491345968  1.0000
  H   H26       1.0  0.8874000134105895  0.20516080415301677  0.0943349509081653  1.0000
  H   H27       1.0  0.8874000131746494  0.2948391943628592  0.59433495115001  1.0000
  H   H28       1.0  0.11259998659515535  0.7948391951104894  0.9056650485123112  1.0000
  H   H29       1.0  0.47759576640017387  0.06808527148264279  0.7555343262266845  1.0000
  H   H30       1.0  0.5224042336886012  0.5680852699985187  0.7444656735758157  1.0000
  H   H31       1.0  0.5224042336055709  0.9319147300126175  0.244465673193792  1.0000
  H   H32       1.0  0.47759576631454614  0.43191472926498736  0.25553432670879117  1.0000
  H   H33       1.0  0.37376108601300106  0.8207192971116072  0.855306185599773  1.0000
  H   H34       1.0  0.6262389137568036  0.32071929636397695  0.6446938140625483  1.0000
  H   H35       1.0  0.6262389139927437  0.17928070215189904  0.14469381382070354  1.0000
  H   H36       1.0  0.37376108624634374  0.6792807028995292  0.3553061862220585  1.0000
  H   H37       1.0  0.48412899270281307  0.26523026410963185  0.9589308891700166  1.0000
  H   H38       1.0  0.5158710073859619  0.7652302648572621  0.5410691106324835  1.0000
  H   H39       1.0  0.5158710073003343  0.7347697351538742  0.04106911111459019  1.0000
  H   H40       1.0  0.4841289926197827  0.23476973663799827  0.45893088878799293  1.0000
  H   H41       1.0  0.43263605172197045  0.6515102537889406  0.007392730167985515  1.0000
  H   H42       1.0  0.5673639481981466  0.15151025304131038  0.49260726973459756  1.0000
  H   H43       1.0  0.5673639482837742  0.3484897454745656  0.9926072692524909  1.0000
  H   H44       1.0  0.43263605180500075  0.8484897462221958  0.5073927305500092  1.0000
  H   H45       1.0  0.30880931871569145  0.8802119579721057  0.48149654914751366  1.0000
  H   H46       1.0  0.6911906812044257  0.38021195945622976  0.018503450755069498  1.0000
  H   H47       1.0  0.6911906812900533  0.1197880412914004  0.5185034502729629  1.0000
  H   H48       1.0  0.30880931879872175  0.6197880420390306  0.9814965495295375  1.0000
  H   H49       1.0  0.35588524805595173  0.8895850085628078  0.6305293473700674  1.0000
  H   H50       1.0  0.6441147520328233  0.3895850078151776  0.8694706524324327  1.0000
  H   H51       1.0  0.6441147519497931  0.1104149907006984  0.369470652050409  1.0000
  H   H52       1.0  0.355885247970324  0.6104149914483286  0.13052934785217404  1.0000
  H   H53       1.0  0.11795707040073374  0.1895259044168818  0.7590751594997319  1.0000
  H   H54       1.0  0.8820429296854438  0.689525905164512  0.7409248411668986  1.0000
  H   H55       1.0  0.8820429296024137  0.8104740948466244  0.24092484078487497  1.0000
  H   H56       1.0  0.11795707031770343  0.3104740940989942  0.2590751591177082  1.0000
  H   H57       1.0  0.020225634200892025  0.5635651800018975  0.7153100355694874  1.0000
  H   H58       1.0  0.979774365887883  0.0635651792542673  0.7846899642330131  1.0000
  H   H59       1.0  0.9797743658048528  0.4364348214933629  0.2846899638509893  1.0000
  H   H60       1.0  0.02022563411526429  0.9364348200092387  0.21531003605159382  1.0000
  H   H61       1.0  0.05048175103436716  0.25560427319694795  0.38500247560241113  1.0000
  H   H62       1.0  0.9495182492021229  0.7556042739445781  0.11499752530448111  1.0000
  H   H63       1.0  0.9495182489687801  0.7443957260665581  0.6149975246821956  1.0000
  H   H64       1.0  0.050481750801024496  0.2443957275506822  0.8850024749801259  1.0000
  C   C1        1.0  0.2322951196937984  0.5782181904796249  0.40035660880905694  1.0000
  C   C2        1.0  0.7677048805452891  0.07821819196374889  0.0996433912337051  1.0000
  C   C3        1.0  0.7677048803119463  0.4217818087838813  0.5996433906114196  1.0000
  C   C4        1.0  0.2322951194578583  0.9217818095315115  0.9003566090509018  1.0000
  C   C5        1.0  0.2757982823896571  0.5123320850892586  0.3930910138249575  1.0000
  C   C6        1.0  0.7242017175304599  0.012332084341628512  0.10690898607762563  1.0000
  C   C7        1.0  0.7242017176134903  0.48766791640600166  0.6069089864596493  1.0000
  C   C8        1.0  0.2757982824726874  0.9876679149218776  0.8930910142069813  1.0000
  C   C9        1.0  0.3351154642736631  0.4920746779260421  0.55408492672926  1.0000
  C   C10       1.0  0.664884535815112  0.9920746786736723  0.9459150730732403  1.0000
  C   C11       1.0  0.6648845357294841  0.507925321337464  0.44591507355534676  1.0000
  C   C12       1.0  0.3351154641906329  0.007925322821588027  0.054084926347236335  1.0000
  C   C13       1.0  0.19957054524477438  0.4344247430046071  0.32043995599480185  1.0000
  C   C14       1.0  0.8004294546753427  0.9344247437522373  0.1795600439077813  1.0000
  C   C15       1.0  0.800429454758373  0.565575256258899  0.679560044289805  1.0000
  C   C16       1.0  0.1995705453304021  0.06557525774302304  0.8204399555126953  1.0000
  C   C17       1.0  0.3931789472753258  0.5468598640148277  0.7197138964689094  1.0000
  C   C18       1.0  0.6068210528134493  0.046859863267197564  0.7802861033335909  1.0000
  C   C19       1.0  0.6068210527278216  0.4531401352486784  0.28028610381569746  1.0000
  C   C20       1.0  0.3931789471922955  0.9531401359963085  0.21971389608688568  1.0000
  C   C21       1.0  0.21945942920574954  0.7729049683812014  0.48504731007417956  1.0000
  C   C22       1.0  0.7805405707143674  0.27290496763357125  0.014952689828403552  1.0000
  C   C23       1.0  0.7805405707973977  0.22709503088230473  0.5149526902104272  1.0000
  C   C24       1.0  0.21945942929137727  0.7270950316299349  0.985047309592073  1.0000
  C   C25       1.0  0.25328099080500216  0.1719063637259822  0.23258743104547208  1.0000
  C   C26       1.0  0.7467190091151149  0.6719063644736124  0.26741256885711107  1.0000
  C   C27       1.0  0.7467190091981453  0.8280936355375239  0.7674125692391347  1.0000
  C   C28       1.0  0.25328099088803246  0.32809363702164795  0.7325874314274957  1.0000
  C   C29       1.0  0.21083962263210054  0.2309751162730568  0.23655332534296686  1.0000
  C   C30       1.0  0.7891603772880165  0.730975117020687  0.26344667455961623  1.0000
  C   C31       1.0  0.7891603773710467  0.7690248829904494  0.7634466749416399  1.0000
  C   C32       1.0  0.21083962271513082  0.26902488447457334  0.7365533257249905  1.0000
  C   C33       1.0  0.2859038585397092  0.31203797574546394  0.31042513340066796  1.0000
  C   C34       1.0  0.7140961416993783  0.8120379764930941  0.18957486664209405  1.0000
  C   C35       1.0  0.7140961414634382  0.6879620235180421  0.6895748668839389  1.0000
  C   C36       1.0  0.2859038583063665  0.18796202500216624  0.8104251327783826  1.0000
  C   C37       1.0  0.17681388089160419  0.8172080157921511  0.48835654056818706  1.0000
  C   C38       1.0  0.8231861190285128  0.3172080172762751  0.011643459334396035  1.0000
  C   C39       1.0  0.8231861191141406  0.18279198347135506  0.5116434588522895  1.0000
  C   C40       1.0  0.17681388065566414  0.6827919842189852  0.9883565408100319  1.0000
  C   C41       1.0  0.42268368219329905  0.33624030298972696  0.6914973838157747  1.0000
  C   C42       1.0  0.5773163178954761  0.8362403015056029  0.8085026159867256  1.0000
  C   C43       1.0  0.5773163178098483  0.6637596985055334  0.3085026164688321  1.0000
  C   C44       1.0  0.42268368211026874  0.1637596977579032  0.19149738343375106  1.0000
  C   C45       1.0  0.14661837849023573  0.6697488429140849  0.40545042062473  1.0000
  C   C46       1.0  0.8533816214298812  0.1697488421664547  0.0945495792778531  1.0000
  C   C47       1.0  0.8533816215129116  0.33025115858117543  0.5945495796598768  1.0000
  C   C48       1.0  0.146618378573266  0.8302511570970514  0.9054504210067538  1.0000
  C   C49       1.0  0.45501220194559466  0.23421051930120643  0.7776707815180774  1.0000
  C   C50       1.0  0.5449877981431804  0.7342105178170824  0.7223292182844228  1.0000
  C   C51       1.0  0.5449877980575526  0.7657894821940538  0.22232921876652928  1.0000
  C   C52       1.0  0.45501220185996694  0.2657894814464237  0.27767078200018414  1.0000
  C   C53       1.0  0.39686441320290394  0.6577674497269361  0.8340456340454339  1.0000
  C   C54       1.0  0.6031355865669007  0.15776745121106012  0.6659543656168875  1.0000
  C   C55       1.0  0.6031355868028409  0.34223254953657  0.16595436537504266  1.0000
  C   C56       1.0  0.39686441343624657  0.8422325502842002  0.33404563466771936  1.0000
  C   C57       1.0  0.4587625155448914  0.34544400584251184  0.8917695076745199  1.0000
  C   C58       1.0  0.5412374845438838  0.845444006590142  0.6082304921279803  1.0000
  C   C59       1.0  0.5412374844582559  0.6545559934209944  0.10823049261008687  1.0000
  C   C60       1.0  0.45876251546186103  0.15455599267336417  0.39176950729249627  1.0000
  C   C61       1.0  0.429839264199831  0.5594484304723005  0.9192041041025427  1.0000
  C   C62       1.0  0.5701607355699736  0.05944842972467043  0.5807958955597785  1.0000
  C   C63       1.0  0.5701607354869433  0.44055156879120555  0.08079589517775487  1.0000
  C   C64       1.0  0.4298392644331737  0.9405515695388357  0.4192041047248282  1.0000
  C   C65       1.0  0.03941625129767121  0.39703439343845526  0.555858975297724  1.0000
  C   C66       1.0  0.9605837487885064  0.8970343919543313  0.9441410253689065  1.0000
  C   C67       1.0  0.9605837487054762  0.602965608056805  0.4441410249868828  1.0000
  C   C68       1.0  0.039416251214640916  0.10296560730917491  0.05585897491570028  1.0000
  C   C69       1.0  0.011153291567405566  0.5353563295663267  0.6212675228201369  1.0000
  C   C70       1.0  0.9888467082023992  0.03535633105045081  0.8787324768421845  1.0000
  C   C71       1.0  0.9888467084383392  0.4646436696971794  0.37873247660033965  1.0000
  C   C72       1.0  0.011153291800748236  0.9646436704448095  0.12126752344242235  1.0000
  C   C73       1.0  0.08186116510137116  0.2839233410437912  0.611234178579564  1.0000
  C   C74       1.0  0.9181388349874039  0.7839233417914213  0.8887658212229361  1.0000
  C   C75       1.0  0.9181388349043736  0.7160766582197149  0.3887658208409125  1.0000
  C   C76       1.0  0.08186116501574342  0.21607665970383896  0.11123417906167064  1.0000
  C   C77       1.0  0.02810290164453877  0.36245179147178325  0.434508712259508  1.0000
  C   C78       1.0  0.9718970982729809  0.8624517922194134  0.06549128850720552  1.0000
  C   C79       1.0  0.9718970983586085  0.6375482077917229  0.5654912880250988  1.0000
  C   C80       1.0  0.028102901730166503  0.13754820704409274  0.9345087117774015  1.0000
  N   N1        1.0  0.3082008801957124  0.6512715944618708  0.4728886757543164  1.0000
  N   N2        1.0  0.6917991200433751  0.15127159371424065  0.027111324288445635  1.0000
  N   N3        1.0  0.691799119807435  0.3487284048016353  0.5271113245302904  1.0000
  N   N4        1.0  0.3082008799597723  0.8487284055492655  0.9728886759961611  1.0000
  N   N5        1.0  0.3609435738429482  0.661864267460071  0.6337683587294493  1.0000
  N   N6        1.0  0.6390564262458268  0.16186426671244078  0.866231641073051  1.0000
  N   N7        1.0  0.6390564261601992  0.3381357340351894  0.36623164155515764  1.0000
  N   N8        1.0  0.3609435737599179  0.8381357325510654  0.13376835834742556  1.0000
  N   N9        1.0  0.15736164986237983  0.4858055711160593  0.3252386989077265  1.0000
  N   N10       1.0  0.8426383500577372  0.9858055718636894  0.1747613009948567  1.0000
  N   N11       1.0  0.8426383501407676  0.5141944281474469  0.6747613013768804  1.0000
  N   N12       1.0  0.1573616499454101  0.014194429631570847  0.8252386992897501  1.0000
  O   O1        1.0  0.3352167300405585  0.212244661920115  0.5560160291003827  1.0000
  O   O2        1.0  0.6647832700482165  0.7122446626677451  0.9439839707021175  1.0000
  O   O3        1.0  0.6647832699625889  0.7877553373433911  0.4439839711842241  1.0000
  O   O4        1.0  0.33521672995752827  0.28775533659576097  0.05601602871835903  1.0000
  O   O5        1.0  0.0885893486929642  0.29267175042430693  0.7276766564237946  1.0000
  O   O6        1.0  0.9114106510768405  0.7926717511719371  0.7723233432385268  1.0000
  O   O7        1.0  0.9114106513101832  0.7073282488391992  0.27232334386081214  1.0000
  O   O8        1.0  0.0885893489289043  0.20732824809156905  0.22767665618194982  1.0000
  O   O9        1.0  0.10848830007244673  0.18975658299105175  0.5524499828422825  1.0000
  O   O10       1.0  0.8915117000163283  0.6897565815069278  0.9475500169602178  1.0000
  O   O11       1.0  0.8915116999307006  0.8102434185042086  0.4475500174423243  1.0000
  O   O12       1.0  0.10848829998941642  0.31024341775657843  0.052449982460258796  1.0000
