data_image0
_chemical_formula_structural       H52C48N12O8
_chemical_formula_sum              "H52 C48 N12 O8"
_cell_length_a       19.064134641933084
_cell_length_b       5.647038741796882
_cell_length_c       10.213267968566715
_cell_angle_alpha    90.0
_cell_angle_beta     90.0
_cell_angle_gamma    90.0

_space_group_name_H-M_alt    "P 1"
_space_group_IT_number       1

loop_
  _space_group_symop_operation_xyz
  'x, y, z'

loop_
  _atom_site_type_symbol
  _atom_site_label
  _atom_site_symmetry_multiplicity
  _atom_site_fract_x
  _atom_site_fract_y
  _atom_site_fract_z
  _atom_site_occupancy
  H   H1        1.0  0.5445924467593488  0.5236929840964728  0.41086598754824294  1.0000
  H   H2        1.0  0.4554075531392522  0.47630701735616787  0.9108659871288515  1.0000
  H   H3        1.0  0.04459244681004829  0.47630701735616787  0.41086598754824294  1.0000
  H   H4        1.0  0.9554075530885527  0.5236929840964728  0.9108659871288515  1.0000
  H   H5        1.0  0.4475082929405354  0.2712920151690903  0.4913656251304906  1.0000
  H   H6        1.0  0.5524917069580656  0.7287079845127109  0.9913656256902177  1.0000
  H   H7        1.0  0.9475082934143813  0.7287079845127109  0.4913656251304906  1.0000
  H   H8        1.0  0.052491707008765084  0.2712920151690903  0.9913656256902177  1.0000
  H   H9        1.0  0.4057268082332268  0.7737926335900409  0.7975050223952024  1.0000
  H   H10       1.0  0.5942731916653742  0.22620736609176018  0.29750502281459373  1.0000
  H   H11       1.0  0.9057268081825274  0.22620736609176018  0.7975050223952024  1.0000
  H   H12       1.0  0.09427319171607372  0.7737926335900409  0.29750502281459373  1.0000
  H   H13       1.0  0.5012640148365536  0.031120663065272305  0.7165240354529719  1.0000
  H   H14       1.0  0.49873598506204747  0.9688793366165288  0.21652403489324493  1.0000
  H   H15       1.0  0.0012640148872530494  0.9688793366165288  0.7165240354529719  1.0000
  H   H16       1.0  0.9987359855358933  0.031120663065272305  0.21652403489324493  1.0000
  H   H17       1.0  0.5969293300609047  0.08597856189764809  0.552220808007595  1.0000
  H   H18       1.0  0.40307067036224153  0.914021437784153  0.052220808426986495  1.0000
  H   H19       1.0  0.09692933011160414  0.914021437784153  0.552220808007595  1.0000
  H   H20       1.0  0.9030706703115422  0.08597856189764809  0.052220808426986495  1.0000
  H   H21       1.0  0.6140451890352889  0.8643746790458217  0.43598407127908634  1.0000
  H   H22       1.0  0.3859548108633121  0.13562532063597946  0.9359840708596948  1.0000
  H   H23       1.0  0.1140451890859884  0.13562532063597946  0.43598407127908634  1.0000
  H   H24       1.0  0.8859548108126125  0.8643746790458217  0.9359840708596948  1.0000
  H   H25       1.0  0.2823978722935678  0.02816143243766683  0.6752148657240975  1.0000
  H   H26       1.0  0.7176021276050333  0.9718385672441342  0.1752148651643704  1.0000
  H   H27       1.0  0.7823978722428683  0.9718385672441342  0.6752148657240975  1.0000
  H   H28       1.0  0.21760212765573278  0.02816143243766683  0.1752148651643704  1.0000
  H   H29       1.0  0.10856664406090931  0.8414383072725361  0.9177477746444946  1.0000
  H   H30       1.0  0.891433356362237  0.158561692409265  0.4177477740847675  1.0000
  H   H31       1.0  0.6085666440102098  0.158561692409265  0.9177477746444946  1.0000
  H   H32       1.0  0.3914333564129364  0.8414383072725361  0.4177477740847675  1.0000
  H   H33       1.0  0.08438405625092033  0.49983968395829476  0.7720601480611677  1.0000
  H   H34       1.0  0.9156159436476807  0.5001603174943459  0.2720601475014407  1.0000
  H   H35       1.0  0.584384056724766  0.5001603174943459  0.7720601480611677  1.0000
  H   H36       1.0  0.41561594369838023  0.49983968395829476  0.2720601475014407  1.0000
  H   H37       1.0  0.16233111169876843  0.42369716401815694  0.5762169599497822  1.0000
  H   H38       1.0  0.8376688881998325  0.5763028356636442  0.07621696036917365  1.0000
  H   H39       1.0  0.6623311116480689  0.5763028356636442  0.5762169599497822  1.0000
  H   H40       1.0  0.3376688882505321  0.42369716401815694  0.07621696036917365  1.0000
  H   H41       1.0  0.2637969865644034  0.7021417350394048  0.5388319876593133  1.0000
  H   H42       1.0  0.7362030133341976  0.2978582646423963  0.03883198709958623  1.0000
  H   H43       1.0  0.763796986513704  0.2978582646423963  0.5388319876593133  1.0000
  H   H44       1.0  0.23620301338489705  0.7021417350394048  0.03883198709958623  1.0000
  H   H45       1.0  0.2598200517900741  0.24572123965249582  0.8549617484701524  1.0000
  H   H46       1.0  0.7401799481085268  0.7542787600293053  0.35496174791042534  1.0000
  H   H47       1.0  0.7598200517393746  0.7542787600293053  0.8549617484701524  1.0000
  H   H48       1.0  0.2401799481592264  0.24572123965249582  0.35496174791042534  1.0000
  H   H49       1.0  0.18725679801629944  0.18303483600169315  0.9623481798626811  1.0000
  H   H50       1.0  0.8127432024068468  0.816965163680108  0.46234817930295397  1.0000
  H   H51       1.0  0.6872567979655999  0.816965163680108  0.9623481798626811  1.0000
  H   H52       1.0  0.3127432019330011  0.18303483600169315  0.46234817930295397  1.0000
  C   C1        1.0  0.529819334038013  0.7960661977979565  0.5566551565568925  1.0000
  C   C2        1.0  0.47018066586058804  0.20393380188384455  0.05665515697628396  1.0000
  C   C3        1.0  0.029819334088712495  0.20393380188384455  0.5566551565568925  1.0000
  C   C4        1.0  0.9701806658098886  0.7960661977979565  0.05665515697628396  1.0000
  C   C5        1.0  0.5133539462354344  0.5786570164312742  0.4946819750102983  1.0000
  C   C6        1.0  0.48664605366316654  0.4213429832505269  0.9946819755700255  1.0000
  C   C7        1.0  0.013353946286133955  0.4213429832505269  0.4946819750102983  1.0000
  C   C8        1.0  0.9866460541370123  0.5786570164312742  0.9946819755700255  1.0000
  C   C9        1.0  0.4591362348410508  0.438296571560696  0.5402724110424338  1.0000
  C   C10       1.0  0.5408637650575503  0.561703428121105  0.04027241048270683  1.0000
  C   C11       1.0  0.9591362347903513  0.561703428121105  0.5402724110424338  1.0000
  C   C12       1.0  0.040863765108249725  0.438296571560696  0.04027241048270683  1.0000
  C   C13       1.0  0.41940998582819733  0.5053839225285507  0.6502655575512151  1.0000
  C   C14       1.0  0.5805900140704038  0.49461607892408993  0.15026555797060648  1.0000
  C   C15       1.0  0.9194099857774979  0.49461607892408993  0.6502655575512151  1.0000
  C   C16       1.0  0.08059001412110321  0.5053839225285507  0.15026555797060648  1.0000
  C   C17       1.0  0.4361617983808397  0.7201698582124373  0.7122898148163358  1.0000
  C   C18       1.0  0.5638382015177613  0.2798301414693639  0.21228981425660878  1.0000
  C   C19       1.0  0.9361617988546854  0.2798301414693639  0.7122898148163358  1.0000
  C   C20       1.0  0.06383820156846078  0.7201698582124373  0.21228981425660878  1.0000
  C   C21       1.0  0.4899180668529388  0.8642978724185197  0.6672091588091663  1.0000
  C   C22       1.0  0.5100819330456622  0.13570212726328124  0.16720915922855772  1.0000
  C   C23       1.0  0.9899180668022394  0.13570212726328124  0.6672091588091663  1.0000
  C   C24       1.0  0.010081933096361661  0.8642978724185197  0.16720915922855772  1.0000
  C   C25       1.0  0.36290792579602077  0.3508539963318114  0.7012762900222943  1.0000
  C   C26       1.0  0.6370920741025803  0.6491460033499897  0.2012762894625672  1.0000
  C   C27       1.0  0.8629079257453212  0.6491460033499897  0.7012762900222943  1.0000
  C   C28       1.0  0.13709207415327976  0.3508539963318114  0.2012762894625672  1.0000
  C   C29       1.0  0.19853218785367438  0.9599409031635402  0.805390025535025  1.0000
  C   C30       1.0  0.8014678120449267  0.04005909651826092  0.3053900259544165  1.0000
  C   C31       1.0  0.6985321878029749  0.04005909651826092  0.805390025535025  1.0000
  C   C32       1.0  0.3014678120956262  0.9599409031635402  0.3053900259544165  1.0000
  C   C33       1.0  0.14136649318831745  0.8059642581010128  0.8327147722134541  1.0000
  C   C34       1.0  0.8586335067102836  0.19403574158078837  0.33271477263284566  1.0000
  C   C35       1.0  0.641366493137618  0.19403574158078837  0.8327147722134541  1.0000
  C   C36       1.0  0.3586335067609831  0.8059642581010128  0.33271477263284566  1.0000
  C   C37       1.0  0.12861586408473744  0.6159812158280243  0.7514422488101065  1.0000
  C   C38       1.0  0.8713841358138636  0.38401878385377675  0.2514422492294979  1.0000
  C   C39       1.0  0.6286158640340379  0.38401878385377675  0.7514422488101065  1.0000
  C   C40       1.0  0.3713841358645631  0.6159812158280243  0.2514422492294979  1.0000
  C   C41       1.0  0.17174713311130907  0.5714623482418593  0.6416610520912126  1.0000
  C   C42       1.0  0.828252866787292  0.42853765321078147  0.14166105153148553  1.0000
  C   C43       1.0  0.6717471330606095  0.42853765321078147  0.6416610520912126  1.0000
  C   C44       1.0  0.32825286683799143  0.5714623482418593  0.14166105153148553  1.0000
  C   C45       1.0  0.22703353869940593  0.7221379941697379  0.6196383977662459  1.0000
  C   C46       1.0  0.7729664617237403  0.27786200551206325  0.11963839818563733  1.0000
  C   C47       1.0  0.7270335386487065  0.27786200551206325  0.6196383977662459  1.0000
  C   C48       1.0  0.2729664617744398  0.7221379941697379  0.11963839818563733  1.0000
  N   N1        1.0  0.5831814146730482  0.9318535130725116  0.5085863678488158  1.0000
  N   N2        1.0  0.41681858575009806  0.06814648660928946  0.008586367289088832  1.0000
  N   N3        1.0  0.08318141472374764  0.06814648660928946  0.5085863678488158  1.0000
  N   N4        1.0  0.9168185856993986  0.9318535130725116  0.008586367289088832  1.0000
  N   N5        1.0  0.21453558982970364  0.1502566936046921  0.8766070260326703  1.0000
  N   N6        1.0  0.7854644100688973  0.849743306077109  0.37660702645206173  1.0000
  N   N7        1.0  0.7145355897790042  0.849743306077109  0.8766070260326703  1.0000
  N   N8        1.0  0.2854644101195969  0.1502566936046921  0.37660702645206173  1.0000
  N   N9        1.0  0.23926956275092023  0.9090102378802905  0.6992188897793289  1.0000
  N   N10       1.0  0.7607304371476807  0.09098976180151054  0.1992188892196018  1.0000
  N   N11       1.0  0.7392695627002208  0.09098976180151054  0.6992188897793289  1.0000
  N   N12       1.0  0.2607304371983803  0.9090102378802905  0.1992188892196018  1.0000
  O   O1        1.0  0.3390877425813499  0.1893515325272512  0.6239146735023196  1.0000
  O   O2        1.0  0.6609122573172511  0.8106484671545499  0.12391467392171099  1.0000
  O   O3        1.0  0.8390877425306504  0.8106484671545499  0.6239146735023196  1.0000
  O   O4        1.0  0.16091225736795065  0.1893515325272512  0.12391467392171099  1.0000
  O   O5        1.0  0.34090771871200953  0.3788465066062673  0.8181245695027628  1.0000
  O   O6        1.0  0.6590922811865916  0.6211534930755337  0.31812456992215427  1.0000
  O   O7        1.0  0.8409077186613101  0.6211534930755337  0.8181245695027628  1.0000
  O   O8        1.0  0.159092281237291  0.3788465066062673  0.31812456992215427  1.0000
