data_image0
_chemical_formula_structural       H28C32N4O8
_chemical_formula_sum              "H28 C32 N4 O8"
_cell_length_a       5.19139864472898
_cell_length_b       8.911647891721822
_cell_length_c       15.084305541909046
_cell_angle_alpha    90.0
_cell_angle_beta     98.67796536266744
_cell_angle_gamma    90.0

_space_group_name_H-M_alt    "P 1"
_space_group_IT_number       1

loop_
  _space_group_symop_operation_xyz
  'x, y, z'

loop_
  _atom_site_type_symbol
  _atom_site_label
  _atom_site_symmetry_multiplicity
  _atom_site_fract_x
  _atom_site_fract_y
  _atom_site_fract_z
  _atom_site_occupancy
  H   H1        1.0  0.4566121292658974  0.7989459375536837  0.9725512355603486  1.0000
  H   H2        1.0  0.9566121301586522  0.7010540627175643  0.4725512358525335  1.0000
  H   H3        1.0  0.5433878700778739  0.201054062253106  0.02744876444200982  1.0000
  H   H4        1.0  0.04338787113366001  0.2989459370892254  0.5274487642546536  1.0000
  H   H5        1.0  0.05973464114350002  0.6333966117807874  0.9410865905973762  1.0000
  H   H6        1.0  0.5597346420469745  0.8666033873683336  0.44108659022718716  1.0000
  H   H7        1.0  0.9402653582002714  0.3666033880260023  0.058913409404982214  1.0000
  H   H8        1.0  0.4402653592453378  0.13339661243845607  0.55891340988  1.0000
  H   H9        1.0  0.8337235084660486  0.4908401356457611  0.9064619961651598  1.0000
  H   H10       1.0  0.33372350976843346  0.009159864818697223  0.40646199621639506  1.0000
  H   H11       1.0  0.16627649087772267  0.5091598652831556  0.09353800383719853  1.0000
  H   H12       1.0  0.6662764915238789  0.9908401349880925  0.593538003890792  1.0000
  H   H13       1.0  0.12193131297502477  0.041365513368456924  0.6986168296028077  1.0000
  H   H14       1.0  0.6219313138784993  0.4586344870960014  0.19861682923261864  1.0000
  H   H15       1.0  0.8780686863687466  0.9586344875604597  0.3013831703995507  1.0000
  H   H16       1.0  0.37806868741381305  0.5413655127107884  0.8013831708745685  1.0000
  H   H17       1.0  0.3371623996683067  0.8944471456737415  0.8281079283631873  1.0000
  H   H18       1.0  0.8371623986232403  0.6055528545975065  0.3281079278881694  1.0000
  H   H19       1.0  0.6628376016240056  0.1055528541330482  0.1718920717439999  1.0000
  H   H20       1.0  0.16283760072053108  0.3944471452092832  0.671892072114189  1.0000
  H   H21       1.0  0.40420724716139034  0.7596409993137682  0.13688649448934792  1.0000
  H   H22       1.0  0.9042072478075465  0.740358999835353  0.6368864945429414  1.0000
  H   H23       1.0  0.595792752182381  0.24035900049302159  0.8631135055130105  1.0000
  H   H24       1.0  0.09579275348476583  0.25964099997143675  0.36311350556424565  1.0000
  H   H25       1.0  0.7578972362969388  0.21616260128381334  0.7159186919255911  1.0000
  H   H26       1.0  0.2578972356507826  0.283837399180645  0.21591869187199753  1.0000
  H   H27       1.0  0.24210276304683256  0.7838373985229763  0.2840813080767673  1.0000
  H   H28       1.0  0.7421027636929888  0.7161626006261448  0.7840813081303608  1.0000
  C   C1        1.0  0.7176390502197532  0.6387690872849503  0.003129923694969263  1.0000
  C   C2        1.0  0.21763905126481967  0.8612309129862977  0.5031299241699871  1.0000
  C   C3        1.0  0.2823609491240181  0.3612309125218394  0.9968700763073891  1.0000
  C   C4        1.0  0.7823609500274926  0.13876908682049202  0.49687007593720006  1.0000
  C   C5        1.0  0.9266047973271856  0.5530368905820592  0.9657905280868986  1.0000
  C   C6        1.0  0.42660479862957035  0.9469631096891888  0.46579052813813376  1.0000
  C   C7        1.0  0.07339520201658574  0.44696311034685743  0.03420947191545978  1.0000
  C   C8        1.0  0.5733952026627419  0.053036890117600904  0.5342094719690533  1.0000
  C   C9        1.0  0.056497789906173754  0.05256396187231924  0.7636616801019581  1.0000
  C   C10       1.0  0.5564977888503877  0.44743603859213904  0.2636616802893143  1.0000
  C   C11       1.0  0.9435022113968582  0.9474360379344705  0.23633831934285499  1.0000
  C   C12       1.0  0.4435022104933837  0.5525639612146507  0.7363383197130441  1.0000
  C   C13       1.0  0.17628542077425513  0.9698993076273805  0.8350803818374006  1.0000
  C   C14       1.0  0.6762854197184691  0.5301006926438676  0.3350803820247568  1.0000
  C   C15       1.0  0.8237145805180572  0.030100693301536176  0.16491961826978652  1.0000
  C   C16       1.0  0.3237145796253023  0.46989930716292216  0.6649196179776015  1.0000
  C   C17       1.0  0.09119825076119359  0.9828070393283662  0.9201682503156172  1.0000
  C   C18       1.0  0.5911982516539486  0.5171929609428818  0.4201682506078022  1.0000
  C   C19       1.0  0.9088017485825779  0.01719296047842357  0.0798317496867412  1.0000
  C   C20       1.0  0.40880174768982286  0.4828070388639078  0.5798317493945563  1.0000
  C   C21       1.0  0.1243109815131188  0.9182479401594648  0.07043831422453307  1.0000
  C   C22       1.0  0.6243109821592749  0.5817520601117833  0.5704383142781266  1.0000
  C   C23       1.0  0.8756890178306526  0.08175205964732495  0.9295616857778253  1.0000
  C   C24       1.0  0.3756890171844964  0.41824793969500645  0.42956168572423176  1.0000
  C   C25       1.0  0.24390292449332646  0.8346206336214358  0.14586151273580292  1.0000
  C   C26       1.0  0.7439029251394826  0.6653793666498121  0.6458615127893964  1.0000
  C   C27       1.0  0.756097074850445  0.16537936618535387  0.8541384872665555  1.0000
  C   C28       1.0  0.25609707615282973  0.3346206342791045  0.3541384873177907  1.0000
  C   C29       1.0  0.8468601301986656  0.15106215330281614  0.7736141974657503  1.0000
  C   C30       1.0  0.3468601315010504  0.3489378471616422  0.2736141975169855  1.0000
  C   C31       1.0  0.15313986914510574  0.8489378465039735  0.22638580253660803  1.0000
  C   C32       1.0  0.6531398697912618  0.6510621537672744  0.7263858025902016  1.0000
  N   N1        1.0  0.21002550746509485  0.9039991254012029  0.9909053196543481  1.0000
  N   N2        1.0  0.7100255083578496  0.5960008748700453  0.49090531994653314  1.0000
  N   N3        1.0  0.7899744918786766  0.09600087440558691  0.009094680348010207  1.0000
  N   N4        1.0  0.28997449098592165  0.4039991260588714  0.5090946800558251  1.0000
  O   O1        1.0  0.6042405443088202  0.7430502114150068  0.9466536040058844  1.0000
  O   O2        1.0  0.104240545611205  0.7569497888562411  0.4466536040571197  1.0000
  O   O3        1.0  0.3957594550349512  0.2569497895139098  0.053346395996473964  1.0000
  O   O4        1.0  0.8957594556811072  0.24305021095054855  0.5533463960500675  1.0000
  O   O5        1.0  0.6574506276799689  0.6154343659711551  0.07784546520814083  1.0000
  O   O6        1.0  0.15745062873575486  0.8845656343000929  0.5778454650207846  1.0000
  O   O7        1.0  0.34254937166380256  0.38456563495776164  0.9221545347942176  1.0000
  O   O8        1.0  0.8425493725565574  0.11543436550669671  0.42215453508640255  1.0000
