data_image0
_chemical_formula_structural       H56C68N8O16
_chemical_formula_sum              "H56 C68 N8 O16"
_cell_length_a       16.27654321313511
_cell_length_b       15.857869298160146
_cell_length_c       5.4123039684150775
_cell_angle_alpha    90.0
_cell_angle_beta     90.0
_cell_angle_gamma    90.0

_space_group_name_H-M_alt    "P 1"
_space_group_IT_number       1

loop_
  _space_group_symop_operation_xyz
  'x, y, z'

loop_
  _atom_site_type_symbol
  _atom_site_label
  _atom_site_symmetry_multiplicity
  _atom_site_fract_x
  _atom_site_fract_y
  _atom_site_fract_z
  _atom_site_occupancy
  H   H1        1.0  0.2652344256067908  0.8302989968222041  0.044699098833291255  1.0000
  H   H2        1.0  0.734765574200594  0.16970100329381735  0.5446990980558888  1.0000
  H   H3        1.0  0.7652344258176738  0.669701003351828  0.044699098833291255  1.0000
  H   H4        1.0  0.23476557398971107  0.33029899676419333  0.5446990980558888  1.0000
  H   H5        1.0  0.23754322950341467  0.9749718230931443  0.8848955561160935  1.0000
  H   H6        1.0  0.7624567703039702  0.025028177022877098  0.3848955568934961  1.0000
  H   H7        1.0  0.7375432297142976  0.5250281770808878  0.8848955561160935  1.0000
  H   H8        1.0  0.2624567700930872  0.4749718230351336  0.3848955568934961  1.0000
  H   H9        1.0  0.14476234475257196  0.9970262468889425  0.5275896839246058  1.0000
  H   H10       1.0  0.8552376550548129  0.0029737532270789537  0.027589682854366276  1.0000
  H   H11       1.0  0.644762344963455  0.5029737532850896  0.5275896839246058  1.0000
  H   H12       1.0  0.35523765484392994  0.4970262468309317  0.027589682854366276  1.0000
  H   H13       1.0  0.08250165974531568  0.8736164341830793  0.3083789491019213  1.0000
  H   H14       1.0  0.9174983400620692  0.12638356530234027  0.8083789483245188  1.0000
  H   H15       1.0  0.5825016599561986  0.626383565360351  0.3083789491019213  1.0000
  H   H16       1.0  0.4174983398511862  0.3736164347556704  0.8083789483245188  1.0000
  H   H17       1.0  0.039360834276100536  0.5780296443144155  0.254881730229939  1.0000
  H   H18       1.0  0.9606391661456654  0.4219703551710042  0.7548817294525366  1.0000
  H   H19       1.0  0.5393608338726024  0.9219703552290149  0.254881730229939  1.0000
  H   H20       1.0  0.46063916593478244  0.0780296442564048  0.7548817294525366  1.0000
  H   H21       1.0  0.05829108352898546  0.4342657402781712  0.43019191338616203  1.0000
  H   H22       1.0  0.9417089162783994  0.5657342598378502  0.9301919126087596  1.0000
  H   H23       1.0  0.5582910837398684  0.06573425977983949  0.43019191338616203  1.0000
  H   H24       1.0  0.44170891606751644  0.9342657403361819  0.9301919126087596  1.0000
  H   H25       1.0  0.1408892625400585  0.41326412690009656  0.8115877185823146  1.0000
  H   H26       1.0  0.8591107372673263  0.5867358732159248  0.3115877175120751  1.0000
  H   H27       1.0  0.6408892627509414  0.08673587315791417  0.8115877185823146  1.0000
  H   H28       1.0  0.35911073767082446  0.9132641269581072  0.3115877175120751  1.0000
  H   H29       1.0  0.2090420549035381  0.5351726918940264  0.015187596720306003  1.0000
  H   H30       1.0  0.7909579455182277  0.46482730822199514  0.5151875959429035  1.0000
  H   H31       1.0  0.70904205450004  0.9648273082800058  0.015187596720306003  1.0000
  H   H32       1.0  0.2909579453073448  0.03517269183601561  0.5151875959429035  1.0000
  H   H33       1.0  0.26184697906620685  0.6707366355475042  0.10879789151466233  1.0000
  H   H34       1.0  0.738153021355559  0.3292633645685171  0.6087978925849018  1.0000
  H   H35       1.0  0.7618469786627087  0.8292633646265278  0.10879789151466233  1.0000
  H   H36       1.0  0.2381530211446761  0.17073663548949353  0.6087978925849018  1.0000
  H   H37       1.0  0.544534703342137  0.7759078044253748  0.18359770548714918  1.0000
  H   H38       1.0  0.4554652970796289  0.22409219569064656  0.6835977047097467  1.0000
  H   H39       1.0  0.04453470313125405  0.7240921957486572  0.18359770548714918  1.0000
  H   H40       1.0  0.9554652966761308  0.2759078043673642  0.6835977047097467  1.0000
  H   H41       1.0  0.4087191593993637  0.7943400253312384  0.691247760996612  1.0000
  H   H42       1.0  0.5912808404080211  0.20565997415418122  0.1912477617740145  1.0000
  H   H43       1.0  0.9087191596102466  0.7056599742121918  0.691247760996612  1.0000
  H   H44       1.0  0.09128084019713818  0.2943400259038295  0.1912477617740145  1.0000
  H   H45       1.0  0.4528901765856056  0.560644246893339  0.7226785049076594  1.0000
  H   H46       1.0  0.5471098232217791  0.43935575259208054  0.22267850568506195  1.0000
  H   H47       1.0  0.9528901767964886  0.9393557526500912  0.7226785049076594  1.0000
  H   H48       1.0  0.04710982301089627  0.06064424746593015  0.22267850568506195  1.0000
  H   H49       1.0  0.42692310701404446  0.554008584307054  0.40122078373138825  1.0000
  H   H50       1.0  0.5730768927933403  0.44599141580896734  0.9012207848016277  1.0000
  H   H51       1.0  0.9269231072249274  0.945991415866978  0.40122078373138825  1.0000
  H   H52       1.0  0.07307689258245738  0.05400858424904333  0.9012207848016277  1.0000
  H   H53       1.0  0.34956660302467696  0.5441840418624978  0.6268654846068324  1.0000
  H   H54       1.0  0.6504333973970889  0.4558159576229219  0.12686548353659302  1.0000
  H   H55       1.0  0.8495666026211788  0.9558159576809325  0.6268654846068324  1.0000
  H   H56       1.0  0.15043339718620602  0.04418404243508881  0.12686548353659302  1.0000
  C   C1        1.0  0.18874884241518575  0.7699389306617991  0.7707246016379119  1.0000
  C   C2        1.0  0.8112511580065801  0.23006106945422222  0.2707246024153144  1.0000
  C   C3        1.0  0.6887488420116876  0.7300610695122329  0.7707246016379119  1.0000
  C   C4        1.0  0.3112511577956972  0.26993893060378843  0.2707246024153144  1.0000
  C   C5        1.0  0.22582293131097952  0.8410806804636399  0.885113511354174  1.0000
  C   C6        1.0  0.7741770684964053  0.15891931965238154  0.38511351213157663  1.0000
  C   C7        1.0  0.7258229315218624  0.6589193197103923  0.885113511354174  1.0000
  C   C8        1.0  0.2741770688999034  0.34108068040562917  0.38511351213157663  1.0000
  C   C9        1.0  0.210044272007403  0.9203192387071352  0.7952696310330185  1.0000
  C   C10       1.0  0.7899557284143629  0.07968076140888618  0.295269631810421  1.0000
  C   C11       1.0  0.7100442716039048  0.5796807614668968  0.7952696310330185  1.0000
  C   C12       1.0  0.2899557282034799  0.4203192386491245  0.295269631810421  1.0000
  C   C13       1.0  0.15759216293113207  0.9328991796972621  0.5884890979123462  1.0000
  C   C14       1.0  0.8424078368762528  0.06710082041875925  0.08848909684210668  1.0000
  C   C15       1.0  0.657592163142015  0.56710082047677  0.5884890979123462  1.0000
  C   C16       1.0  0.3424078366653698  0.4328991796392514  0.08848909684210668  1.0000
  C   C17       1.0  0.12280772175180951  0.8657750080960055  0.46756075873932257  1.0000
  C   C18       1.0  0.8771922780555753  0.13422499202001584  0.96756075796192  1.0000
  C   C19       1.0  0.6228077219626924  0.6342249920780265  0.46756075873932257  1.0000
  C   C20       1.0  0.3771922778446924  0.36577500803799484  0.96756075796192  1.0000
  C   C21       1.0  0.1372673049027375  0.7825473300779299  0.5552312744326514  1.0000
  C   C22       1.0  0.8627326949046472  0.2174526700380915  0.055231273362411924  1.0000
  C   C23       1.0  0.6372673051136204  0.7174526700961021  0.5552312744326514  1.0000
  C   C24       1.0  0.3627326953081454  0.2825473300199192  0.055231273362411924  1.0000
  C   C25       1.0  0.11360525301882174  0.6389699271374125  0.534417916451025  1.0000
  C   C26       1.0  0.8863947467885631  0.3610300729786089  0.03441791722842753  1.0000
  C   C27       1.0  0.6136052532297047  0.8610300730366196  0.534417916451025  1.0000
  C   C28       1.0  0.3863947471920612  0.13896992707940178  0.03441791722842753  1.0000
  C   C29       1.0  0.07619583247867762  0.5678971777781551  0.4199296035964432  1.0000
  C   C30       1.0  0.9238041679430883  0.43210282233786634  0.9199296046666827  1.0000
  C   C31       1.0  0.5761958320751795  0.932102822395877  0.4199296035964432  1.0000
  C   C32       1.0  0.4238041677322053  0.06789717772014432  0.9199296046666827  1.0000
  C   C33       1.0  0.0867973918970649  0.4888160164681991  0.5182533457782474  1.0000
  C   C34       1.0  0.9132026079103199  0.5111839836478222  0.01825334470800799  1.0000
  C   C35       1.0  0.5867973921079479  0.011183983589811581  0.5182533457782474  1.0000
  C   C36       1.0  0.413202607699437  0.9888160165262098  0.01825334470800799  1.0000
  C   C37       1.0  0.13443065529013792  0.47664640992323976  0.7361716938390612  1.0000
  C   C38       1.0  0.8655693451316279  0.5233535901927816  0.2361716927688217  1.0000
  C   C39       1.0  0.6344306548866399  0.023353590134770955  0.7361716938390612  1.0000
  C   C40       1.0  0.365569344920745  0.9766464099812504  0.2361716927688217  1.0000
  C   C41       1.0  0.1723699008605158  0.5437181930235963  0.8492414610899953  1.0000
  C   C42       1.0  0.8276300989468691  0.45628180709242516  0.34924146186739785  1.0000
  C   C43       1.0  0.6723699004570177  0.9562818071504359  0.8492414610899953  1.0000
  C   C44       1.0  0.3276300993503672  0.043718192965585545  0.34924146186739785  1.0000
  C   C45       1.0  0.16364199542385294  0.6265409559878731  0.7522346017073823  1.0000
  C   C46       1.0  0.8363580043835319  0.3734590441281484  0.25223460248478474  1.0000
  C   C47       1.0  0.6636419956347359  0.8734590441861592  0.7522346017073823  1.0000
  C   C48       1.0  0.33635800478703004  0.12654095592986234  0.25223460248478474  1.0000
  C   C49       1.0  0.3388966175292402  0.7038224770395182  0.37072725806041046  1.0000
  C   C50       1.0  0.6611033822781446  0.29617752307650325  0.870727257283008  1.0000
  C   C51       1.0  0.8388966177401233  0.7961775225039123  0.37072725806041046  1.0000
  C   C52       1.0  0.16110338268164273  0.2038224769815074  0.870727257283008  1.0000
  C   C53       1.0  0.3928330411607358  0.6696966036434757  0.5729274386833905  1.0000
  C   C54       1.0  0.6071669586466489  0.33030339647254564  0.07292743761315099  1.0000
  C   C55       1.0  0.8928330413716188  0.8303033965305563  0.5729274386833905  1.0000
  C   C56       1.0  0.1071669590501471  0.1696966035854651  0.07292743761315099  1.0000
  C   C57       1.0  0.42360760265336117  0.7285250901481688  0.7278257620023414  1.0000
  C   C58       1.0  0.5763923971540237  0.2714749099678526  0.22782576277974392  1.0000
  C   C59       1.0  0.9236076028642441  0.7714749100258633  0.7278257620023414  1.0000
  C   C60       1.0  0.07639239694314069  0.22852509009015812  0.22782576277974392  1.0000
  C   C61       1.0  0.4766026666976666  0.7130371386849482  0.9439844546455033  1.0000
  C   C62       1.0  0.5233973331097181  0.2869628614310732  0.44398445542290577  1.0000
  C   C63       1.0  0.9766026669085496  0.7869628614890839  0.9439844546455033  1.0000
  C   C64       1.0  0.023397332898835266  0.21303713862693754  0.44398445542290577  1.0000
  C   C65       1.0  0.40722296947247877  0.5769483180859297  0.5830375729846654  1.0000
  C   C66       1.0  0.5927770309492871  0.4230516820300917  0.08303757376206794  1.0000
  C   C67       1.0  0.9072229690689807  0.9230516820881024  0.5830375729846654  1.0000
  C   C68       1.0  0.09277703073840418  0.07694831802791902  0.08303757376206794  1.0000
  N   N1        1.0  0.20126358140691575  0.6920883117174726  0.8635323546634858  1.0000
  N   N2        1.0  0.798736418400469  0.307911687767947  0.3635323535932463  1.0000
  N   N3        1.0  0.7012635816177988  0.8079116878259577  0.8635323546634858  1.0000
  N   N4        1.0  0.2987364188039672  0.19208831165946197  0.3635323535932463  1.0000
  N   N5        1.0  0.10197404622503381  0.7165929379502721  0.4399976930152654  1.0000
  N   N6        1.0  0.8980259535823509  0.2834070621657493  0.939997692237863  1.0000
  N   N7        1.0  0.6019740464359168  0.78340706222376  0.4399976930152654  1.0000
  N   N8        1.0  0.3980259539858491  0.21659293789226142  0.939997692237863  1.0000
  O   O1        1.0  0.3335839728928645  0.7797422155216407  0.3242909360307004  1.0000
  O   O2        1.0  0.6664160275289014  0.22025778459438064  0.8242909371009399  1.0000
  O   O3        1.0  0.8335839724893664  0.7202577846523913  0.3242909360307004  1.0000
  O   O4        1.0  0.16641602731801844  0.27974221546363004  0.8242909371009399  1.0000
  O   O5        1.0  0.29675959303828287  0.6445820568836405  0.2491081908680782  1.0000
  O   O6        1.0  0.7032404067691019  0.35541794323238096  0.7491081900906756  1.0000
  O   O7        1.0  0.7967595932491659  0.8554179432903917  0.2491081908680782  1.0000
  O   O8        1.0  0.20324040717260008  0.14458205682562975  0.7491081900906756  1.0000
  O   O9        1.0  0.48883713180444055  0.6438338712493082  0.04167912987083359  1.0000
  O   O10       1.0  0.5111628680029443  0.35616612886671306  0.5416791290934311  1.0000
  O   O11       1.0  0.9888371320153236  0.8561661289247238  0.04167912987083359  1.0000
  O   O12       1.0  0.011162867792061309  0.14383387119129762  0.5416791290934311  1.0000
  O   O13       1.0  0.5098632517562384  0.7853033075158995  0.02627133487508796  1.0000
  O   O14       1.0  0.4901367486655275  0.21469669260012192  0.5262713359453274  1.0000
  O   O15       1.0  0.009863251545355474  0.7146966926581326  0.02627133487508796  1.0000
  O   O16       1.0  0.9901367482620294  0.2853033074578888  0.5262713359453274  1.0000
