data_image0
_chemical_formula_structural       H36C50N8P2Br2
_chemical_formula_sum              "H36 C50 N8 P2 Br2"
_cell_length_a       10.810807418322668
_cell_length_b       11.477873237983358
_cell_length_c       11.932756481798158
_cell_angle_alpha    118.17270791261059
_cell_angle_beta     90.30345749885186
_cell_angle_gamma    115.67757511807349

_space_group_name_H-M_alt    "P 1"
_space_group_IT_number       1

loop_
  _space_group_symop_operation_xyz
  'x, y, z'

loop_
  _atom_site_type_symbol
  _atom_site_label
  _atom_site_symmetry_multiplicity
  _atom_site_fract_x
  _atom_site_fract_y
  _atom_site_fract_z
  _atom_site_occupancy
  H   H1        1.0  0.6105102110686922  0.05419518431316138  0.2793122063268159  1.0000
  H   H2        1.0  0.38948978893539  0.9458048148739004  0.7206877929207429  1.0000
  H   H3        1.0  0.5837396749379631  0.9461697942695378  0.3574463844774339  1.0000
  H   H4        1.0  0.4162603253432911  0.05383020551055064  0.6425536157557765  1.0000
  H   H5        1.0  0.48033964603589313  0.03910307054551675  0.3709026133556052  1.0000
  H   H6        1.0  0.5196603546917958  0.9608969302046688  0.6290973868832138  1.0000
  H   H7        1.0  0.3803863352442578  0.8420842811152585  0.41750213794874147  1.0000
  H   H8        1.0  0.6196136645580637  0.15791571963414577  0.5824978622885781  1.0000
  H   H9        1.0  0.20576969346949311  0.6743329417073467  0.48088799525940246  1.0000
  H   H10       1.0  0.7942303069810238  0.32566705844981225  0.5191120039937648  1.0000
  H   H11       1.0  0.9979129564450673  0.42759892560041823  0.3084326503545825  1.0000
  H   H12       1.0  0.0020870429108195347  0.5724010741788891  0.6915673498771286  1.0000
  H   H13       1.0  0.9657578885026677  0.3538087429243329  0.07350219823415276  1.0000
  H   H14       1.0  0.0342421112996537  0.6461912578250714  0.9264978020031668  1.0000
  H   H15       1.0  0.13644668527832635  0.5205370917435971  0.00931010223183647  1.0000
  H   H16       1.0  0.8635533154493625  0.4794629090065885  0.9906898980069824  1.0000
  H   H17       1.0  0.37709670155397673  0.8016277746860471  0.9059896833523463  1.0000
  H   H18       1.0  0.622903297524738  0.19837222450023365  0.09401031589371321  1.0000
  H   H19       1.0  0.23242356834877423  0.8632839868197233  0.8058582660299175  1.0000
  H   H20       1.0  0.7675764321017426  0.13671601333743558  0.19414173322324974  1.0000
  H   H21       1.0  0.08584133814231415  0.9677646293283663  0.9262444709566499  1.0000
  H   H22       1.0  0.9141586616600074  0.03223537142103808  0.07375552928066977  1.0000
  H   H23       1.0  0.080639981867177  0.010965404764707339  0.15270748406429313  1.0000
  H   H24       1.0  0.9193600176579725  0.9890345953916704  0.8472925151873749  1.0000
  H   H25       1.0  0.21681088571887314  0.9418332511932094  0.25136859291876984  1.0000
  H   H26       1.0  0.7831891133598416  0.058166747993071206  0.7486314063272896  1.0000
  H   H27       1.0  0.6879808439999456  0.862823223698634  0.18239378768064746  1.0000
  H   H28       1.0  0.3120191564505714  0.13717677645852525  0.8176062115725199  1.0000
  H   H29       1.0  0.7954177060265457  0.7290555547002467  0.0250442732594448  1.0000
  H   H30       1.0  0.20458229470114322  0.2709444460499389  0.9749557269793742  1.0000
  H   H31       1.0  0.6468449444655896  0.5076216279146488  0.8002980509991842  1.0000
  H   H32       1.0  0.3531550548902972  0.49237837186465844  0.199701949232527  1.0000
  H   H33       1.0  0.38909811076813  0.4158761039062161  0.7360833434869912  1.0000
  H   H34       1.0  0.6109018895131242  0.5841238958738724  0.2639166567462192  1.0000
  H   H35       1.0  0.2793710385301378  0.5493322010568875  0.8902556024874972  1.0000
  H   H36       1.0  0.7206289609950117  0.45066779909949023  0.10974439676417079  1.0000
  C   C1        1.0  0.5324044654647041  0.9792685545141728  0.30665678086035303  1.0000
  C   C2        1.0  0.46759553481655025  0.020731445265915947  0.6933432193728575  1.0000
  C   C3        1.0  0.2706263882950168  0.6939869742647002  0.20960937884218667  1.0000
  C   C4        1.0  0.729373610783698  0.3060130249215804  0.7903906204038726  1.0000
  C   C5        1.0  0.28877955366309266  0.7364665124569602  0.3422133257572077  1.0000
  C   C6        1.0  0.7112204463409895  0.2635334867301018  0.657786673490351  1.0000
  C   C7        1.0  0.1899660266327358  0.6411402034230683  0.37776067789496287  1.0000
  C   C8        1.0  0.810033972723151  0.3588597963562389  0.6222393223367483  1.0000
  C   C9        1.0  0.07376450592667563  0.5034288230841047  0.28132097130811184  1.0000
  C   C10       1.0  0.9262354943545784  0.49657117669598366  0.7186790289250986  1.0000
  C   C11       1.0  0.055534908404075274  0.46141240102097075  0.14917052693052812  1.0000
  C   C12       1.0  0.9444650918771789  0.5385875987591178  0.8508294733026824  1.0000
  C   C13       1.0  0.15293281993735405  0.5562056570620979  0.11291442324301235  1.0000
  C   C14       1.0  0.8470671803439  0.44379434271799056  0.887085576990198  1.0000
  C   C15       1.0  0.3051075349182069  0.8658531349577993  0.08488704328843605  1.0000
  C   C16       1.0  0.6948924650858752  0.13414686422926264  0.9151129559591228  1.0000
  C   C17       1.0  0.31231462532921705  0.8468618360379816  0.9605608731044655  1.0000
  C   C18       1.0  0.6876853737494977  0.15313816314829892  0.039439126141593984  1.0000
  C   C19       1.0  0.23207790273074658  0.8829913048581892  0.9043191621270388  1.0000
  C   C20       1.0  0.7679220975505077  0.1170086949218992  0.09568083810617158  1.0000
  C   C21       1.0  0.14807046001282995  0.941009702134653  0.9722789399927595  1.0000
  C   C22       1.0  0.8519295393430568  0.058990297644654355  0.027721060238951722  1.0000
  C   C23       1.0  0.14351157518859312  0.9630239632199858  0.09740778562811944  1.0000
  C   C24       1.0  0.8564884255390959  0.0369760375301998  0.9025922146106995  1.0000
  C   C25       1.0  0.22070168940205454  0.9243196020375548  0.15358276007938698  1.0000
  C   C26       1.0  0.7792983104002671  0.07568039871184958  0.8464172401579327  1.0000
  C   C27       1.0  0.4766909429245075  0.716979803241565  0.047117810264883965  1.0000
  C   C28       1.0  0.5233090573567467  0.2830201965385234  0.9528821899683264  1.0000
  C   C29       1.0  0.621977389383444  0.7664105385902225  0.08454453391235979  1.0000
  C   C30       1.0  0.37802261089781003  0.23358946118986595  0.9154554663208505  1.0000
  C   C31       1.0  0.6828114481000805  0.691113159241746  0.9953350766120656  1.0000
  C   C32       1.0  0.31718855218117376  0.3088868405383426  0.004664923621144997  1.0000
  C   C33       1.0  0.5993806338802318  0.5666264185153757  0.8698322022135462  1.0000
  C   C34       1.0  0.4006193661238503  0.43337358067168613  0.13016779703401254  1.0000
  C   C35       1.0  0.4542702172289649  0.515954343220463  0.8331222291417341  1.0000
  C   C36       1.0  0.5457297825733568  0.48404565752894146  0.16687777109558563  1.0000
  C   C37       1.0  0.39265779161202535  0.59089270661701  0.9210377853342222  1.0000
  C   C38       1.0  0.6073422083920569  0.4091072925700519  0.07896221391333665  1.0000
  C   C39       1.0  0.5435665024245178  0.3533636845247955  0.3816464973164182  1.0000
  C   C40       1.0  0.45643349830317115  0.6466363162253902  0.6183535029224008  1.0000
  C   C41       1.0  0.4654028138448683  0.4273079777988537  0.4444010890263481  1.0000
  C   C42       1.0  0.5345971864363859  0.5726920219812348  0.5555989112068623  1.0000
  C   C43       1.0  0.31924024726061445  0.35714645526016325  0.3815665712937527  1.0000
  C   C44       1.0  0.6807597520952724  0.642853544519144  0.6184334289379584  1.0000
  C   C45       1.0  0.02646295471602929  0.17559883197273632  0.6532854328474814  1.0000
  C   C46       1.0  0.9735370450862922  0.824401168776668  0.3467145673898382  1.0000
  C   C47       1.0  0.984297427467903  0.057964349464177785  0.5188804834607085  1.0000
  C   C48       1.0  0.01570257325978592  0.9420356512860079  0.4811195167781105  1.0000
  C   C49       1.0  0.928253755748745  0.07571476068960262  0.42377602703501477  1.0000
  C   C50       1.0  0.07174624360714177  0.9242852390897045  0.5762239731966963  1.0000
  N   N1        1.0  0.6131045735829496  0.30066968174577363  0.32941133143836726  1.0000
  N   N2        1.0  0.38689542577293723  0.6993303180335336  0.6705886687933439  1.0000
  N   N3        1.0  0.20157616314404544  0.3066936969386188  0.3281623684304467  1.0000
  N   N4        1.0  0.7984238366582761  0.6933063038107856  0.671837631806873  1.0000
  N   N5        1.0  0.06448147329081405  0.273772548035449  0.7636460678956104  1.0000
  N   N6        1.0  0.93551852699044  0.7262274517446395  0.23635393233760005  1.0000
  N   N7        1.0  0.8885308602909022  0.09437840283585777  0.3456875630229478  1.0000
  N   N8        1.0  0.1114691387878125  0.9056215963504228  0.6543124362231117  1.0000
  P   P1        1.0  0.3984530712568933  0.8139321191711756  0.1615876552939968  1.0000
  P   P2        1.0  0.6015469278218214  0.18606788001510494  0.8384123439520627  1.0000
  Br  Br1       1.0  0.3409278341165869  0.160157349637123  0.5130661348154077  1.0000
  Br  Br2       1.0  0.6590721654085627  0.8398426505192549  0.48693386443626013  1.0000
