data_image0
_chemical_formula_structural       H112C56N8Br12I4
_chemical_formula_sum              "H112 C56 N8 Br12 I4"
_cell_length_a       8.409430599534316
_cell_length_b       18.170950668367972
_cell_length_c       13.308752758225983
_cell_angle_alpha    90.0
_cell_angle_beta     97.74043600789066
_cell_angle_gamma    90.0

_space_group_name_H-M_alt    "P 1"
_space_group_IT_number       1

loop_
  _space_group_symop_operation_xyz
  'x, y, z'

loop_
  _atom_site_type_symbol
  _atom_site_label
  _atom_site_symmetry_multiplicity
  _atom_site_fract_x
  _atom_site_fract_y
  _atom_site_fract_z
  _atom_site_occupancy
  H   H1        1.0  0.6006520588668034  0.6396638889254082  0.4040801385248396  1.0000
  H   H2        1.0  0.8993479422124517  0.139663888605336  0.09591986179125565  1.0000
  H   H3        1.0  0.39934794220737685  0.36033611116440717  0.5959198617820545  1.0000
  H   H4        1.0  0.10065205886172862  0.8603361114844792  0.9040801385156384  1.0000
  H   H5        1.0  0.5458995135690168  0.5631814656684184  0.3245323908431377  1.0000
  H   H6        1.0  0.9541004875102383  0.06318146589867518  0.17546760947295756  1.0000
  H   H7        1.0  0.4541004875051636  0.43681853442139695  0.6754676094637565  1.0000
  H   H8        1.0  0.04589951356394191  0.93681853419114  0.8245323908339366  1.0000
  H   H9        1.0  0.5426394749843585  0.7218599196812467  0.24466119175848006  1.0000
  H   H10       1.0  0.9573605247484018  0.22185991991150356  0.2553388077961776  1.0000
  H   H11       1.0  0.45736052474332706  0.2781400798582396  0.7553388077869765  1.0000
  H   H12       1.0  0.04263947497928384  0.7781400801783117  0.744661191749279  1.0000
  H   H13       1.0  0.5233790403021659  0.6401524291323579  0.17142406471509236  1.0000
  H   H14       1.0  0.976620959587287  0.14015242881228585  0.3285759355978533  1.0000
  H   H15       1.0  0.4766209595822122  0.3598475709574573  0.8285759355886522  1.0000
  H   H16       1.0  0.023379040297091067  0.8598475707272005  0.6714240647058911  1.0000
  H   H17       1.0  0.8030356296233895  0.6908187226468011  0.18800908851267928  1.0000
  H   H18       1.0  0.6969643702660633  0.19081872287705803  0.3119909118002664  1.0000
  H   H19       1.0  0.1969643702609885  0.3091812774430141  0.8119909117910653  1.0000
  H   H20       1.0  0.3030356296183147  0.8091812772127572  0.6880090885034782  1.0000
  H   H21       1.0  0.801299001215809  0.6021149861490802  0.24358898646748556  1.0000
  H   H22       1.0  0.6987009985169513  0.10211498582900806  0.2564110130871721  1.0000
  H   H23       1.0  0.19870099851187664  0.3978850139407351  0.756411013077971  1.0000
  H   H24       1.0  0.3012990012107343  0.8978850142608072  0.7435889864582843  1.0000
  H   H25       1.0  0.8203211912962716  0.6824818434837471  0.3219787361442226  1.0000
  H   H26       1.0  0.6796788085931812  0.18248184316367502  0.17802126416872302  1.0000
  H   H27       1.0  0.17967880858810645  0.31751815660606814  0.6780212641595219  1.0000
  H   H28       1.0  0.32032119129119674  0.8175181563758113  0.8219787361350215  1.0000
  H   H29       1.0  0.3317503975920667  0.7435479803222366  0.30944623869416  1.0000
  H   H30       1.0  0.16824960338323222  0.2435479805524934  0.1905537607025739  1.0000
  H   H31       1.0  0.6682496033254212  0.25645201921724975  0.6905537608544461  1.0000
  H   H32       1.0  0.8317503975342557  0.7564520195373219  0.8094462388460323  1.0000
  H   H33       1.0  0.1858001457561701  0.7107443917330252  0.38192662207046374  1.0000
  H   H34       1.0  0.3141998541860189  0.21074439196328196  0.11807337808140847  1.0000
  H   H35       1.0  0.8141998539715156  0.28925560835679015  0.6180733774749927  1.0000
  H   H36       1.0  0.6858001468881614  0.7892556081265334  0.8819266222254856  1.0000
  H   H37       1.0  0.5387234668002031  0.7425189928828205  0.464649368807705  1.0000
  H   H38       1.0  0.9612765329325572  0.24251899311307734  0.03535063074695267  1.0000
  H   H39       1.0  0.46127653292748255  0.2574810072069948  0.5353506307377516  1.0000
  H   H40       1.0  0.03872346679512835  0.7574810069767379  0.9646493687985039  1.0000
  H   H41       1.0  0.3950427436970188  0.709264663980156  0.538490706835174  1.0000
  H   H42       1.0  0.10495725618228444  0.2092646636600839  0.9615092934593694  1.0000
  H   H43       1.0  0.6049572561873592  0.2907353361096593  0.46150929346857056  1.0000
  H   H44       1.0  0.8950427437020936  0.7907353358794025  0.03849070684437509  1.0000
  H   H45       1.0  0.36932654423567757  0.8546925300411309  0.418238530000475  1.0000
  H   H46       1.0  0.13067345570651143  0.35469253027138775  0.08176147015139727  1.0000
  H   H47       1.0  0.6306734556487005  0.14530747004868436  0.5817614703032695  1.0000
  H   H48       1.0  0.8693265441778666  0.6453074698184276  0.9182385301523474  1.0000
  H   H49       1.0  0.42333561719903146  0.8466688700433189  0.551280319957477  1.0000
  H   H50       1.0  0.07666438268027176  0.3466688702735757  0.9487196803370663  1.0000
  H   H51       1.0  0.5766643826853465  0.1533311300464964  0.4487196803462675  1.0000
  H   H52       1.0  0.9233356172041063  0.6533311298162395  0.05128031996667813  1.0000
  H   H53       1.0  0.2262310968153232  0.8235517240190747  0.4951670365362904  1.0000
  H   H54       1.0  0.2737689031268658  0.3235517236990026  0.004832963615581854  1.0000
  H   H55       1.0  0.7737689030690549  0.1764482760707406  0.5048329637674541  1.0000
  H   H56       1.0  0.7262310966008199  0.6764482763908127  0.9951670359298748  1.0000
  H   H57       1.0  0.43472380452284937  0.5926300492767332  0.4975588858872514  1.0000
  H   H58       1.0  0.06527619541933966  0.09263004895666116  0.0024411142646208533  1.0000
  H   H59       1.0  0.5652761953615286  0.407369950813082  0.5024411144164931  1.0000
  H   H60       1.0  0.9347238044650383  0.9073699505828251  0.9975588860391237  1.0000
  H   H61       1.0  0.3524854691967753  0.5241163290690598  0.4105436401352321  1.0000
  H   H62       1.0  0.1475145305887213  0.02411632929931665  0.08945635925835221  1.0000
  H   H63       1.0  0.6475145317207125  0.4758836710207554  0.589456359413374  1.0000
  H   H64       1.0  0.8524854691389644  0.9758836707904986  0.9105436402871044  1.0000
  H   H65       1.0  0.07430497745341742  0.5764909635815356  0.4214545387423763  1.0000
  H   H66       1.0  0.4256950224887716  0.07649096326146348  0.07854546140949592  1.0000
  H   H67       1.0  0.9256950224309606  0.42350903650827965  0.5785454615613682  1.0000
  H   H68       1.0  0.5743049785854087  0.9235090362780227  0.9214545388973981  1.0000
  H   H69       1.0  0.161130385932643  0.6384463307247513  0.5158640657503654  1.0000
  H   H70       1.0  0.3388696139466602  0.13844633095500822  0.9841359345441779  1.0000
  H   H71       1.0  0.838869613951735  0.36155366881473494  0.4841359345533791  1.0000
  H   H72       1.0  0.6611303859377178  0.861553669134807  0.015864065759566528  1.0000
  H   H73       1.0  0.1831285421016288  0.46931487491435336  0.5275769884503784  1.0000
  H   H74       1.0  0.31687145777767445  0.9693148752344254  0.972423011844165  1.0000
  H   H75       1.0  0.8168714577827492  0.5306851251754618  0.4724230118533662  1.0000
  H   H76       1.0  0.6831285421067036  0.030685124855389805  0.027576988459579455  1.0000
  H   H77       1.0  0.0688904147877027  0.5280639772306319  0.5986995188005478  1.0000
  H   H78       1.0  0.4311095850916005  0.028063976910559806  0.9013004814939954  1.0000
  H   H79       1.0  0.9311095850966754  0.47193602285918335  0.40130048150319675  1.0000
  H   H80       1.0  0.5688904147927775  0.9719360231792554  0.09869951880974893  1.0000
  H   H81       1.0  0.28049335893272676  0.5311439311098434  0.6207606804730698  1.0000
  H   H82       1.0  0.21950664078988416  0.031143931340100205  0.8792393190631858  1.0000
  H   H83       1.0  0.719506640794959  0.46885606842964295  0.37923931907238684  1.0000
  H   H84       1.0  0.7804933589378015  0.968856068749715  0.12076068048227084  1.0000
  H   H85       1.0  0.11852738338963552  0.6189094481213556  0.2761404570556497  1.0000
  H   H86       1.0  0.3814726165525535  0.11890944780128357  0.22385954309622255  1.0000
  H   H87       1.0  0.8814726163380502  0.38109055196845965  0.7238595424898069  1.0000
  H   H88       1.0  0.6185273833318244  0.8810905522885316  0.7761404572075219  1.0000
  H   H89       1.0  0.25694270715864914  0.6557006987389572  0.20054091743596644  1.0000
  H   H90       1.0  0.24305729262684755  0.155700698969214  0.2994590819576179  1.0000
  H   H91       1.0  0.7430572925690366  0.34429930135085807  0.7994590821094902  1.0000
  H   H92       1.0  0.7569427071008381  0.8442993011206011  0.7005409175878388  1.0000
  H   H93       1.0  0.24870437385255692  0.49298338999918506  0.2666488910533966  1.0000
  H   H94       1.0  0.2512956260896321  0.9929833897689282  0.23335110909847565  1.0000
  H   H95       1.0  0.7512956260318212  0.5070166100906301  0.7333511092503479  1.0000
  H   H96       1.0  0.748704373794746  0.007016610320887042  0.7666488912052688  1.0000
  H   H97       1.0  0.3796133635059819  0.5312999834844138  0.1867390428144171  1.0000
  H   H98       1.0  0.12038663643620715  0.031299983714670576  0.31326095733745507  1.0000
  H   H99       1.0  0.6203866362217038  0.4687000166054015  0.8132609567310394  1.0000
  H   H100      1.0  0.8796133634481709  0.9687000163751447  0.6867390429662894  1.0000
  H   H101      1.0  0.14034749052690193  0.5689183416251326  0.06189439978084727  1.0000
  H   H102      1.0  0.35965250941528704  0.06891834130506044  0.438105600371025  1.0000
  H   H103      1.0  0.8596525093574761  0.4310816584646827  0.9381056005228973  1.0000
  H   H104      1.0  0.6403474904690909  0.9310816582344259  0.5618943999327195  1.0000
  H   H105      1.0  0.010250270178869314  0.5280536382008569  0.14109803483089056  1.0000
  H   H106      1.0  0.4897497297633197  0.028053637880784823  0.35890196532098173  1.0000
  H   H107      1.0  0.9897497295488163  0.4719463618889583  0.8589019647145659  1.0000
  H   H108      1.0  0.5102502701210583  0.9719463622090305  0.6410980349827629  1.0000
  H   H109      1.0  0.14658443596630863  0.4728265497388897  0.08320297370959641  1.0000
  H   H110      1.0  0.35341556397588036  0.972826549508633  0.41679702644227584  1.0000
  H   H111      1.0  0.8534155639180694  0.5271734503509256  0.9167970265941482  1.0000
  H   H112      1.0  0.6465844359084976  0.027173450030853443  0.5832029738614687  1.0000
  C   C1        1.0  0.845350439084068  0.952007197406238  0.38803850325072775  1.0000
  C   C2        1.0  0.6546495606486925  0.45200719708616593  0.11196149630392999  1.0000
  C   C3        1.0  0.15464956064361773  0.04799280268357724  0.6119614962947288  1.0000
  C   C4        1.0  0.3453504390789931  0.5479928024533204  0.8880385032415266  1.0000
  C   C5        1.0  0.8332459476101631  0.877468341144974  0.35293066831179604  1.0000
  C   C6        1.0  0.6667540522792896  0.3774683408249019  0.14706933200114963  1.0000
  C   C7        1.0  0.16675405227421486  0.12253165894484129  0.6470693319919485  1.0000
  C   C8        1.0  0.33324594760508836  0.6225316592649134  0.8529306683025949  1.0000
  C   C9        1.0  0.5281507257532311  0.6226019263644891  0.3329706444376366  1.0000
  C   C10       1.0  0.9718492741362217  0.12260192659474595  0.16702935587530898  1.0000
  C   C11       1.0  0.47184927413114686  0.37739807372532613  0.6670293558661078  1.0000
  C   C12       1.0  0.028150725748156347  0.8773980734950693  0.8329706444284355  1.0000
  C   C13       1.0  0.5791241909253813  0.663867213673056  0.2436421186820136  1.0000
  C   C14       1.0  0.9208758089640716  0.16386721390331285  0.25635788163093204  1.0000
  C   C15       1.0  0.42087580895899684  0.33613278641675925  0.7563578816217309  1.0000
  C   C16       1.0  0.07912419092030638  0.8361327861865024  0.7436421186728124  1.0000
  C   C17       1.0  0.7618749233339948  0.6594434886040131  0.24990952039130357  1.0000
  C   C18       1.0  0.738125076555458  0.1594434882839411  0.2500904799216421  1.0000
  C   C19       1.0  0.23812507655038317  0.34055651148580207  0.7500904799124409  1.0000
  C   C20       1.0  0.2618749233289201  0.8405565118058742  0.7499095203821025  1.0000
  C   C21       1.0  0.31486587326378523  0.7103464824473769  0.3762030525118786  1.0000
  C   C22       1.0  0.1851341266784038  0.21034648212730475  0.12379694763999365  1.0000
  C   C23       1.0  0.6851341264639005  0.2896535176424384  0.623796947033578  1.0000
  C   C24       1.0  0.8148658732059741  0.7896535179625105  0.8762030526637509  1.0000
  C   C25       1.0  0.4098214207683997  0.7422744707286916  0.47102705696371533  1.0000
  C   C26       1.0  0.09017857917378932  0.24227447040861946  0.028972943188156994  1.0000
  C   C27       1.0  0.5901785791159783  0.2577255293611237  0.5289729433400293  1.0000
  C   C28       1.0  0.9098214207105886  0.7577255296811958  0.9710270571155875  1.0000
  C   C29       1.0  0.35360319078229  0.8211566077263557  0.48484132566642113  1.0000
  C   C30       1.0  0.14639680915989894  0.3211566079566126  0.01515867448545106  1.0000
  C   C31       1.0  0.646396809102088  0.17884339236345953  0.5151586746373233  1.0000
  C   C32       1.0  0.8536031907244791  0.6788433921332027  0.9848413258182934  1.0000
  C   C33       1.0  0.3344422576220099  0.5800640551156524  0.43816145322614325  1.0000
  C   C34       1.0  0.16555774232017903  0.08006405534590925  0.061838546925729  1.0000
  C   C35       1.0  0.6655577422623681  0.41993594497416287  0.5618385470776013  1.0000
  C   C36       1.0  0.8344422574075067  0.9199359447439059  0.9381614526197275  1.0000
  C   C37       1.0  0.17667640199427992  0.5844478807862966  0.4811597790673752  1.0000
  C   C38       1.0  0.3233235979479091  0.0844478810165534  0.018840221084497014  1.0000
  C   C39       1.0  0.8233235978900981  0.4155521193035187  0.5188402212363693  1.0000
  C   C40       1.0  0.6766764017797766  0.9155521190732618  0.9811597784609596  1.0000
  C   C41       1.0  0.17711399041275386  0.5243036131612413  0.5614631489152458  1.0000
  C   C42       1.0  0.32288601065635164  0.024303613391498145  0.9385368513824472  1.0000
  C   C43       1.0  0.8228860106614264  0.47569638692857397  0.4385368513916483  1.0000
  C   C44       1.0  0.6771139904178286  0.9756963866983172  0.06146314892444696  1.0000
  C   C45       1.0  0.23997654477559127  0.61233791027618  0.25573758939832864  1.0000
  C   C46       1.0  0.26002345516659775  0.11233791050643685  0.24426241075354363  1.0000
  C   C47       1.0  0.7600234549520943  0.38766208981363526  0.744262410147128  1.0000
  C   C48       1.0  0.7399765447177803  0.8876620895833786  0.7557375895502008  1.0000
  C   C49       1.0  0.2601571764682005  0.5367289988287639  0.21083719785341407  1.0000
  C   C50       1.0  0.23984282347398847  0.03672899850869183  0.2891628022984582  1.0000
  C   C51       1.0  0.7398428232594851  0.46327100126105136  0.7891628016920424  1.0000
  C   C52       1.0  0.7601571764103895  0.9632710015811233  0.7108371980052863  1.0000
  C   C53       1.0  0.13166040158618708  0.5261075644568146  0.1192055156894861  1.0000
  C   C54       1.0  0.36833959819930956  0.026107564136742454  0.38079448370409813  1.0000
  C   C55       1.0  0.8683395981414985  0.47389243563300065  0.8807944838559705  1.0000
  C   C56       1.0  0.6316604015283761  0.973892435402744  0.6192055158413585  1.0000
  N   N1        1.0  0.8513401713143357  0.014005690986934901  0.41204726596803654  1.0000
  N   N2        1.0  0.6486598284184248  0.514005690756678  0.08795273358662112  1.0000
  N   N3        1.0  0.14865982841335001  0.9859943091028804  0.58795273357742  1.0000
  N   N4        1.0  0.3513401713092609  0.4859943093331372  0.9120472659588353  1.0000
  N   N5        1.0  0.3542803204076521  0.6314262285667471  0.35066588543469746  1.0000
  N   N6        1.0  0.1457196795345369  0.1314262287970039  0.14933411471717484  1.0000
  N   N7        1.0  0.6457196794767259  0.36857377097273925  0.649334114869047  1.0000
  N   N8        1.0  0.854280320349841  0.8685737712928114  0.8506658855865695  1.0000
  Br  Br1       1.0  0.006528291839356467  0.8601463035837841  0.26546844004338443  1.0000
  Br  Br2       1.0  0.4934717081028325  0.36014630326371194  0.23453156010848783  1.0000
  Br  Br3       1.0  0.9934717080450215  0.13985369650603124  0.73453156026036  1.0000
  Br  Br4       1.0  0.5065282917815455  0.6398536962757745  0.7654684401952567  1.0000
  Br  Br5       1.0  0.6163021458075155  0.8659227795599542  0.26957212733964786  1.0000
  Br  Br6       1.0  0.8836978539252449  0.365922779790211  0.23042787221500985  1.0000
  Br  Br7       1.0  0.3836978539201702  0.13407722052986112  0.7304278722058087  1.0000
  Br  Br8       1.0  0.1163021458024407  0.6340772202996043  0.7695721273304467  1.0000
  Br  Br9       1.0  0.8512741962070207  0.8072384184903759  0.46821884715457474  1.0000
  Br  Br10      1.0  0.648725803682432  0.3072384181703038  0.03178115315837091  1.0000
  Br  Br11      1.0  0.1487258036773573  0.19276158159943937  0.5317811531491697  1.0000
  Br  Br12      1.0  0.35127419620194594  0.6927615813691825  0.9682188471453737  1.0000
  I   I1        1.0  0.2894123330579137  0.8406295140402762  0.12429156245307708  1.0000
  I   I2        1.0  0.21058766688427538  0.3406295137202041  0.3757084376987952  1.0000
  I   I3        1.0  0.7105876668264643  0.15937048604953905  0.8757084378506673  1.0000
  I   I4        1.0  0.7894123328434103  0.6593704858192823  0.6242915618466613  1.0000
