data_image0
_chemical_formula_structural       H30C42N2O12
_chemical_formula_sum              "H30 C42 N2 O12"
_cell_length_a       9.30076820113975
_cell_length_b       9.329488583398883
_cell_length_c       9.872215912138204
_cell_angle_alpha    101.8972329686477
_cell_angle_beta     94.5572760324172
_cell_angle_gamma    101.78599910627509

_space_group_name_H-M_alt    "P 1"
_space_group_IT_number       1

loop_
  _space_group_symop_operation_xyz
  'x, y, z'

loop_
  _atom_site_type_symbol
  _atom_site_label
  _atom_site_symmetry_multiplicity
  _atom_site_fract_x
  _atom_site_fract_y
  _atom_site_fract_z
  _atom_site_occupancy
  H   H1        1.0  0.5114968185442287  0.39765210548578217  0.7357403802603619  1.0000
  H   H2        1.0  0.48850318160772793  0.6023478952505744  0.26425962021089044  1.0000
  H   H3        1.0  0.5675743505450562  0.6599543726816753  0.7941357135457341  1.0000
  H   H4        1.0  0.4324256496069003  0.3400456280546812  0.20586428692551836  1.0000
  H   H5        1.0  0.5125345931841122  0.8937651158661205  0.9250127606641311  1.0000
  H   H6        1.0  0.48746540671254807  0.10623488374570147  0.0749872395677198  1.0000
  H   H7        1.0  0.3060028625405774  0.8846998954615192  0.07326358202800323  1.0000
  H   H8        1.0  0.6939971373403875  0.1153001041517156  0.9267364171901166  1.0000
  H   H9        1.0  0.14902240059463495  0.6385574381018407  0.08413678294826175  1.0000
  H   H10       1.0  0.8509775993020252  0.3614425615099812  0.9158632172835892  1.0000
  H   H11       1.0  0.08653652695518411  0.35772278466947083  0.002670010938005906  1.0000
  H   H12       1.0  0.9134634731967723  0.6422772160668856  0.9973299895332465  1.0000
  H   H13       1.0  0.034845169645202574  0.07975837999898046  0.9252020866203985  1.0000
  H   H14       1.0  0.9651548302514575  0.9202416196128416  0.07479791361145231  1.0000
  H   H15       1.0  0.1082478568930357  0.8512818750035798  0.7981274104894598  1.0000
  H   H16       1.0  0.8917521430036245  0.14871812460824224  0.20187258974239103  1.0000
  H   H17       1.0  0.33443715237244626  0.8780235622948764  0.6753862206159885  1.0000
  H   H18       1.0  0.6655628475085186  0.1219764373183583  0.3246137786021312  1.0000
  H   H19       1.0  0.48280269211734805  0.1292211857083749  0.6738867063800251  1.0000
  H   H20       1.0  0.5171973077793122  0.870778813903447  0.3261132938518257  1.0000
  H   H21       1.0  0.8194455620398695  0.533604291329633  0.7592213932536467  1.0000
  H   H22       1.0  0.1805544380963917  0.4663957094081363  0.24077860620387478  1.0000
  H   H23       1.0  0.8041956800493701  0.36139822547351763  0.3045098474725671  1.0000
  H   H24       1.0  0.1958043201025865  0.6386017752628389  0.6954901529986853  1.0000
  H   H25       1.0  0.7739321582307862  0.11469968642479013  0.697512506246686  1.0000
  H   H26       1.0  0.22606784166587401  0.8853003131870318  0.30248749398516467  1.0000
  H   H27       1.0  0.45281219144232077  0.2968961911493381  0.45525848466706353  1.0000
  H   H28       1.0  0.5471878087096359  0.7031038095870183  0.5447415158041888  1.0000
  H   H29       1.0  0.10655416662763056  0.2755299353185354  0.5751110727600777  1.0000
  H   H30       1.0  0.8934458335086307  0.724470065419234  0.4248889266974437  1.0000
  C   C1        1.0  0.47721045695482617  0.6565845790372058  0.8577372344274949  1.0000
  C   C2        1.0  0.522789542941834  0.3434154205746161  0.14226276580435593  1.0000
  C   C3        1.0  0.4449964040068707  0.7858238403830458  0.931292597418943  1.0000
  C   C4        1.0  0.5550035961293907  0.21417616035472353  0.06870740203857832  1.0000
  C   C5        1.0  0.32646253586754653  0.7804320067067436  0.013744199632167737  1.0000
  C   C6        1.0  0.6735374640291136  0.21956799290507828  0.9862558005996831  1.0000
  C   C7        1.0  0.23874732791392547  0.6446537077596155  0.019522237937118263  1.0000
  C   C8        1.0  0.7612526719670394  0.35534629185361927  0.9804777612810015  1.0000
  C   C9        1.0  0.26648446541487153  0.508046734865936  0.943375399255739  1.0000
  C   C10       1.0  0.7335155344817886  0.4919532647458859  0.05662460097611179  1.0000
  C   C11       1.0  0.18068511911654306  0.36601275573355707  0.9433577198582859  1.0000
  C   C12       1.0  0.819314880780117  0.6339872438782649  0.056642280373565015  1.0000
  C   C13       1.0  0.21603842766531453  0.23480581618212584  0.871930637094197  1.0000
  C   C14       1.0  0.7839615724709468  0.7651941845556435  0.1280693623633243  1.0000
  C   C15       1.0  0.13269681794676144  0.08839970089431703  0.8707393490817417  1.0000
  C   C16       1.0  0.8673031819498989  0.9116002987175048  0.12926065115010926  1.0000
  C   C17       1.0  0.17373678606394782  0.9630335864497569  0.8005109748129556  1.0000
  C   C18       1.0  0.8262632138170171  0.03696641316347783  0.19948902440516417  1.0000
  C   C19       1.0  0.3013985099322228  0.9781648775176386  0.7295370653421275  1.0000
  C   C20       1.0  0.6986014899644373  0.021835122094183257  0.27046293488972334  1.0000
  C   C21       1.0  0.3847996037615495  0.11780092248017035  0.7277203248671286  1.0000
  C   C22       1.0  0.615200397452054  0.8821990782525786  0.27227967465501957  1.0000
  C   C23       1.0  0.34218524512052817  0.24783933235980954  0.796778238449737  1.0000
  C   C24       1.0  0.6578147550314283  0.7521606683765469  0.20322176202151543  1.0000
  C   C25       1.0  0.38898453732761695  0.5159127697832413  0.8636043571474364  1.0000
  C   C26       1.0  0.6110154638859865  0.48408723094950756  0.13639564237471172  1.0000
  C   C27       1.0  0.8907894261883679  0.42149784203220114  0.38971729062122723  1.0000
  C   C28       1.0  0.10921057396358883  0.5785021587041554  0.6102827098500252  1.0000
  C   C29       1.0  0.8523539576341645  0.4575481897934928  0.5245545448126884  1.0000
  C   C30       1.0  0.147646042517792  0.5424518109428637  0.475445455658564  1.0000
  C   C31       1.0  0.696116788103162  0.40947723431622857  0.5488027743891309  1.0000
  C   C32       1.0  0.3038832117934982  0.5905227652955933  0.45119722584271993  1.0000
  C   C33       1.0  0.9632176297010288  0.5381205813888306  0.6363989931405852  1.0000
  C   C34       1.0  0.036782370435232484  0.4618794193489388  0.36360100631693615  1.0000
  C   C35       1.0  0.131180738949645  0.06368448292043062  0.4528820661730106  1.0000
  C   C36       1.0  0.8688192612023115  0.9363155178159257  0.5471179342982418  1.0000
  C   C37       1.0  0.060272943410318774  0.15505191269427152  0.54248256582299  1.0000
  C   C38       1.0  0.9397270564863414  0.8449480869175504  0.45751743440886083  1.0000
  C   C39       1.0  0.9302271388177201  0.09346074921006291  0.5911611498389547  1.0000
  C   C40       1.0  0.06977286133423656  0.9065392515262936  0.40883885063229763  1.0000
  C   C41       1.0  0.27472079479330824  0.1262514615574925  0.40908911081898597  1.0000
  C   C42       1.0  0.7252792050876566  0.8737485380557424  0.5909108883991337  1.0000
  N   N1        1.0  0.42024690475010845  0.3866743424983535  0.7944377555383445  1.0000
  N   N2        1.0  0.5797530954018482  0.6133256582380029  0.2055622449329079  1.0000
  O   O1        1.0  0.6019717930048208  0.3361134316218511  0.44440860912640706  1.0000
  O   O2        1.0  0.3980282068918392  0.6638865679899708  0.5555913911054438  1.0000
  O   O3        1.0  0.6651420077094286  0.4437785927445861  0.674557873316306  1.0000
  O   O4        1.0  0.33485799218723167  0.556221406867236  0.32544212691554486  1.0000
  O   O5        1.0  0.9301621872732441  0.577711096150094  0.7686682181827865  1.0000
  O   O6        1.0  0.06983781286301734  0.4222889045876754  0.23133178127473486  1.0000
  O   O7        1.0  0.8656004620920095  0.18485638727906037  0.6796404344088972  1.0000
  O   O8        1.0  0.1343995378046507  0.8151436123327616  0.32035956582295366  1.0000
  O   O9        1.0  0.3362425769443289  0.2668204505472421  0.46884382139267394  1.0000
  O   O10       1.0  0.6637574229523312  0.7331795490645797  0.5311561788391769  1.0000
  O   O11       1.0  0.33490275032174177  0.04558054935497586  0.32259401498170825  1.0000
  O   O12       1.0  0.6650972495749183  0.954419450256846  0.6774059852501425  1.0000
