data_image0
_chemical_formula_structural       H20C20N4Br4I2
_chemical_formula_sum              "H20 C20 N4 Br4 I2"
_cell_length_a       8.30864778941774
_cell_length_b       9.236229959346227
_cell_length_c       9.801857004408308
_cell_angle_alpha    102.60604791914739
_cell_angle_beta     108.34181622100651
_cell_angle_gamma    113.00967226859858

_space_group_name_H-M_alt    "P 1"
_space_group_IT_number       1

loop_
  _space_group_symop_operation_xyz
  'x, y, z'

loop_
  _atom_site_type_symbol
  _atom_site_label
  _atom_site_symmetry_multiplicity
  _atom_site_fract_x
  _atom_site_fract_y
  _atom_site_fract_z
  _atom_site_occupancy
  H   H1        1.0  0.08290768871569751  0.9188652069402159  0.751463109460564  1.0000
  H   H2        1.0  0.9170923120431026  0.08113479312325375  0.24853688986037334  1.0000
  H   H3        1.0  0.22216143530577268  0.8915407908029503  0.3568463495936139  1.0000
  H   H4        1.0  0.7778385649011654  0.10845920975944154  0.6431536508959327  1.0000
  H   H5        1.0  0.4680412105015792  0.19527698465232077  0.5013889161430984  1.0000
  H   H6        1.0  0.5319587897053588  0.8047230159100712  0.49861108434644813  1.0000
  H   H7        1.0  0.33993898111668724  0.22109509842453373  0.8785541702612387  1.0000
  H   H8        1.0  0.6600610190902506  0.7789049021378582  0.1214458302283078  1.0000
  H   H9        1.0  0.9557341909113478  0.6370406559191317  0.6502232081384627  1.0000
  H   H10       1.0  0.04426580933330888  0.36295934296708027  0.3497767911801769  1.0000
  H   H11       1.0  0.772325046502434  0.6805886732981942  0.5494522393082029  1.0000
  H   H12       1.0  0.22767495305412297  0.31941132676742245  0.4505477600137787  1.0000
  H   H13       1.0  0.7678543203489941  0.48849948320155273  0.46087662712362226  1.0000
  H   H14       1.0  0.23214567869341954  0.5115005156868063  0.5391233721960614  1.0000
  H   H15       1.0  0.8889006006265887  0.6757101007162631  0.22596040458068078  1.0000
  H   H16       1.0  0.11109939892996837  0.3242898993493534  0.7740395947413008  1.0000
  H   H17       1.0  0.05627983522947095  0.6027905594094306  0.2914171758862328  1.0000
  H   H18       1.0  0.9437201638129425  0.3972094394789284  0.7085828234334508  1.0000
  H   H19       1.0  0.8099007153645003  0.4839266869542494  0.2586039107520297  1.0000
  H   H20       1.0  0.1900992841920568  0.5160733131113673  0.7413960885699519  1.0000
  C   C1        1.0  0.06598165883291211  0.88369831673621  0.013611351135037203  1.0000
  C   C2        1.0  0.9340183419258881  0.11630168332725963  0.9863886481859003  1.0000
  C   C3        1.0  0.19962247143067602  0.06031066228871237  0.08087458789907706  1.0000
  C   C4        1.0  0.800377528776262  0.9396893382736796  0.9191254125904694  1.0000
  C   C5        1.0  0.8644412884206634  0.8210646009598329  0.9317871745611548  1.0000
  C   C6        1.0  0.13555871113589366  0.17893539910578365  0.06821282476082682  1.0000
  C   C7        1.0  0.12354446634867752  0.8727698874924633  0.538784708838594  1.0000
  C   C8        1.0  0.8764555333441169  0.12723011189267103  0.4612152916486546  1.0000
  C   C9        1.0  0.16393915314269308  0.9726667722193045  0.6904166831160086  1.0000
  C   C10       1.0  0.8360608464138642  0.02733322784631215  0.309583316205973  1.0000
  C   C11       1.0  0.23949668174753738  0.9577482506049274  0.4713337625190588  1.0000
  C   C12       1.0  0.7605033172948763  0.04225174828343155  0.528666236800625  1.0000
  C   C13       1.0  0.37886251684850997  0.12894244544822456  0.552850222976188  1.0000
  C   C14       1.0  0.6211374827080471  0.871057554617392  0.44714977634579356  1.0000
  C   C15       1.0  0.3074219890012223  0.1430158917538748  0.7618842504044955  1.0000
  C   C16       1.0  0.6925780112057156  0.8569841088085172  0.238115750085051  1.0000
  C   C17       1.0  0.8639886336904983  0.6246329684828573  0.5348217266663589  1.0000
  C   C18       1.0  0.13601136600229616  0.3753670309022771  0.4651782738208898  1.0000
  C   C19       1.0  0.9328140373318444  0.6128474458823678  0.3020689056647513  1.0000
  C   C20       1.0  0.06718596236095002  0.3871525535027665  0.6979310948224973  1.0000
  N   N1        1.0  0.4134668999241348  0.2229247624018345  0.6953966674005875  1.0000
  N   N2        1.0  0.5865331002828033  0.7770752381605576  0.3046033330889591  1.0000
  N   N3        1.0  0.9823850414571607  0.705363700446494  0.4628995282838988  1.0000
  N   N4        1.0  0.0176149582356338  0.2946362989386403  0.5371004722033498  1.0000
  Br  Br1       1.0  0.16015482258141675  0.7281030476441277  0.034017544847817605  1.0000
  Br  Br2       1.0  0.839845176460997  0.27189695124423136  0.9659824544718661  1.0000
  Br  Br3       1.0  0.47110294586767326  0.13597770503199066  0.18730341251081814  1.0000
  Br  Br4       1.0  0.5288970548911269  0.864022295031479  0.8126965868101194  1.0000
  I   I1        1.0  0.6588289861185569  0.5493434668815456  0.8272020165171903  1.0000
  I   I2        1.0  0.3411710152906241  0.45065653367869957  0.17279798397131219  1.0000
