data_image0
_chemical_formula_structural       H20C20N4Cl4I2
_chemical_formula_sum              "H20 C20 N4 Cl4 I2"
_cell_length_a       8.117311209827763
_cell_length_b       9.059047387470759
_cell_length_c       9.807879454803237
_cell_angle_alpha    103.94401442809648
_cell_angle_beta     107.22869119996841
_cell_angle_gamma    111.98575530750999

_space_group_name_H-M_alt    "P 1"
_space_group_IT_number       1

loop_
  _space_group_symop_operation_xyz
  'x, y, z'

loop_
  _atom_site_type_symbol
  _atom_site_label
  _atom_site_symmetry_multiplicity
  _atom_site_fract_x
  _atom_site_fract_y
  _atom_site_fract_z
  _atom_site_occupancy
  H   H1        1.0  0.4637176307730427  0.19102181468317378  0.4936475769496105  1.0000
  H   H2        1.0  0.5362823689546219  0.8089781845688157  0.5063524224660518  1.0000
  H   H3        1.0  0.208784497493348  0.8868637998072363  0.34300836713857746  1.0000
  H   H4        1.0  0.7912155022343165  0.11313619944475312  0.6569916322770849  1.0000
  H   H5        1.0  0.35330669488956645  0.20653103809551507  0.8813467423846422  1.0000
  H   H6        1.0  0.6466933054673514  0.793468961668381  0.11865325819423733  1.0000
  H   H7        1.0  0.08917261318741035  0.9033631227159585  0.7489206692371523  1.0000
  H   H8        1.0  0.9108273865402543  0.09663687653603105  0.25107933017851025  1.0000
  H   H9        1.0  0.9495540193301062  0.6172268405163165  0.6331584424705495  1.0000
  H   H10       1.0  0.050445979667835116  0.38277315992961086  0.3668415569476282  1.0000
  H   H11       1.0  0.7681165485528493  0.6742438307201829  0.5486598238229926  1.0000
  H   H12       1.0  0.23188345167648833  0.32575616972373217  0.45134017559603684  1.0000
  H   H13       1.0  0.7547633645579843  0.47640435989762075  0.44536673235625757  1.0000
  H   H14       1.0  0.2452366363006066  0.5235956410582009  0.554633268225989  1.0000
  H   H15       1.0  0.8740183133938669  0.6781477544944718  0.21838896114251213  1.0000
  H   H16       1.0  0.12598168683547084  0.32185224594944345  0.7816110382765173  1.0000
  H   H17       1.0  0.03789884710292403  0.5925921391749391  0.26712929408219926  1.0000
  H   H18       1.0  0.9621011513933442  0.4074078600790625  0.7328707053326114  1.0000
  H   H19       1.0  0.7905333773229308  0.47845247632801924  0.2408295841724717  1.0000
  H   H20       1.0  0.20946662240473368  0.5215475229239703  0.7591704152431907  1.0000
  C   C1        1.0  0.9317200180840994  0.1184649364076436  0.9859467359520574  1.0000
  C   C2        1.0  0.06827998214523827  0.8815350640362716  0.014053263466972122  1.0000
  C   C3        1.0  0.799114992653634  0.939121719436511  0.9181639015350229  1.0000
  C   C4        1.0  0.20088500707403048  0.06087827981547832  0.08183609788063943  1.0000
  C   C5        1.0  0.8657352176506609  0.8186794530209996  0.9314121349660877  1.0000
  C   C6        1.0  0.1342647825786768  0.18132054742291565  0.06858786445294177  1.0000
  C   C7        1.0  0.376519881388476  0.1222988006213583  0.5460042055553862  1.0000
  C   C8        1.0  0.6234801183391886  0.8777011986306312  0.4539957938602763  1.0000
  C   C9        1.0  0.11906308947993392  0.8631154341679802  0.5299670492295975  1.0000
  C   C10       1.0  0.8809369108769839  0.13688456559591586  0.47003295134928197  1.0000
  C   C11       1.0  0.2321610304888574  0.9510969236579969  0.46114497401338694  1.0000
  C   C12       1.0  0.7678389703697337  0.0489030772978248  0.5388550265688598  1.0000
  C   C13       1.0  0.31509100284024505  0.13054927890544932  0.761099742494379  1.0000
  C   C14       1.0  0.6849089973890926  0.8694507215384658  0.2389002569246506  1.0000
  C   C15       1.0  0.16733932851809333  0.9598363607416557  0.6864396594136098  1.0000
  C   C16       1.0  0.8326606718388246  0.040163639022240454  0.31356034116526976  1.0000
  C   C17       1.0  0.8558654306993719  0.6126929563235235  0.5234708791736984  1.0000
  C   C18       1.0  0.14413456892782275  0.38730704463431037  0.4765291214076965  1.0000
  C   C19       1.0  0.9170460459763438  0.6074359947227471  0.28632412560670417  1.0000
  C   C20       1.0  0.08295395314917767  0.392564005043161  0.7136758749713236  1.0000
  N   N1        1.0  0.41866033755537396  0.21348723879060083  0.6934593816664271  1.0000
  N   N2        1.0  0.5813396628015439  0.7865127609732951  0.3065406189124525  1.0000
  N   N3        1.0  0.9726825255862824  0.6958763319796278  0.4503708482196437  1.0000
  N   N4        1.0  0.027317472909985683  0.30412366727437373  0.5496291511951669  1.0000
  Cl  Cl1       1.0  0.5512320399837808  0.8703665160772606  0.8203346316169159  1.0000
  Cl  Cl2       1.0  0.4487679602455569  0.1296334843666547  0.1796653678021135  1.0000
  Cl  Cl3       1.0  0.8419866595733504  0.260881395171548  0.9659864005343051  1.0000
  Cl  Cl4       1.0  0.1580133407835673  0.7391186045923479  0.03401360004457443  1.0000
  I   I1        1.0  0.663404099780512  0.5444615474313426  0.8273682199817443  1.0000
  I   I2        1.0  0.3365959004488257  0.45553845301257256  0.17263177943728522  1.0000
