data_image0
_chemical_formula_structural       H56C48O32Br16
_chemical_formula_sum              "H56 C48 O32 Br16"
_cell_length_a       7.874387830691605
_cell_length_b       9.936558390887106
_cell_length_c       23.548647250961942
_cell_angle_alpha    90.0
_cell_angle_beta     90.0
_cell_angle_gamma    90.0

_space_group_name_H-M_alt    "P 1"
_space_group_IT_number       1

loop_
  _space_group_symop_operation_xyz
  'x, y, z'

loop_
  _atom_site_type_symbol
  _atom_site_label
  _atom_site_symmetry_multiplicity
  _atom_site_fract_x
  _atom_site_fract_y
  _atom_site_fract_z
  _atom_site_occupancy
  H   H1        1.0  0.45289743236926316  0.39895359580794315  0.3075343523057007  1.0000
  H   H2        1.0  0.047102566951852005  0.60104640410278  0.8075343520729497  1.0000
  H   H3        1.0  0.5471025675429071  0.8989535952601124  0.19246564788620113  1.0000
  H   H4        1.0  0.9528974329603181  0.10104640465061074  0.6924656476534501  1.0000
  H   H5        1.0  0.5471025675429071  0.60104640410278  0.6924656476534501  1.0000
  H   H6        1.0  0.9528974329603181  0.39895359580794315  0.19246564788620113  1.0000
  H   H7        1.0  0.45289743236926316  0.10104640465061074  0.8075343520729497  1.0000
  H   H8        1.0  0.047102566951852005  0.8989535952601124  0.3075343523057007  1.0000
  H   H9        1.0  0.5694398607753325  0.25283086569531166  0.2629400497621818  1.0000
  H   H10       1.0  0.9305601384579529  0.7471691342154114  0.7629400495294308  1.0000
  H   H11       1.0  0.43056013913683777  0.7528308651474809  0.23705995042971997  1.0000
  H   H12       1.0  0.06943986145421732  0.24716913476324218  0.737059950196969  1.0000
  H   H13       1.0  0.43056013913683777  0.7471691342154114  0.737059950196969  1.0000
  H   H14       1.0  0.06943986145421732  0.25283086569531166  0.23705995042971997  1.0000
  H   H15       1.0  0.5694398607753325  0.24716913476324218  0.7629400495294308  1.0000
  H   H16       1.0  0.9305601384579529  0.7528308651474809  0.2629400497621818  1.0000
  H   H17       1.0  0.2597707712626521  0.5965350855720992  0.20322026012787267  1.0000
  H   H18       1.0  0.24022922805846308  0.40346491433862386  0.7032202598951216  1.0000
  H   H19       1.0  0.7402292286495182  0.09653508511354536  0.29677974006402913  1.0000
  H   H20       1.0  0.7597707718537071  0.9034649147971776  0.7967797402559309  1.0000
  H   H21       1.0  0.7402292286495182  0.40346491433862386  0.7967797402559309  1.0000
  H   H22       1.0  0.7597707718537071  0.5965350855720992  0.29677974006402913  1.0000
  H   H23       1.0  0.2597707712626521  0.9034649147971776  0.7032202598951216  1.0000
  H   H24       1.0  0.24022922805846308  0.09653508511354536  0.20322026012787267  1.0000
  H   H25       1.0  0.34776108046477644  0.34530613367569385  0.19432408542333876  1.0000
  H   H26       1.0  0.15223892012627865  0.6546938662350292  0.6943240856152406  1.0000
  H   H27       1.0  0.6522389194473938  0.8453061331278631  0.3056759147685631  1.0000
  H   H28       1.0  0.8477610797858917  0.15469386678286004  0.805675914535812  1.0000
  H   H29       1.0  0.6522389194473938  0.6546938662350292  0.805675914535812  1.0000
  H   H30       1.0  0.8477610797858917  0.34530613367569385  0.3056759147685631  1.0000
  H   H31       1.0  0.34776108046477644  0.15469386678286004  0.6943240856152406  1.0000
  H   H32       1.0  0.15223892012627865  0.8453061331278631  0.19432408542333876  1.0000
  H   H33       1.0  0.5619110063075696  0.32559770624073797  0.17112684338313258  1.0000
  H   H34       1.0  0.9380889929257158  0.674402293669985  0.6711268435750344  1.0000
  H   H35       1.0  0.43808899360460063  0.825597706699292  0.3288731563841164  1.0000
  H   H36       1.0  0.061911006986454464  0.17440229321143122  0.8288731565760182  1.0000
  H   H37       1.0  0.43808899360460063  0.674402293669985  0.8288731565760182  1.0000
  H   H38       1.0  0.061911006986454464  0.32559770624073797  0.3288731563841164  1.0000
  H   H39       1.0  0.5619110063075696  0.17440229321143122  0.6711268435750344  1.0000
  H   H40       1.0  0.9380889929257158  0.825597706699292  0.17112684338313258  1.0000
  H   H41       1.0  0.6179595601113053  0.566232885539124  0.2024686254453634  1.0000
  H   H42       1.0  0.88204043912198  0.4337671143715991  0.7024686252126123  1.0000
  H   H43       1.0  0.38204043980086494  0.06623288508057008  0.29753137474653846  1.0000
  H   H44       1.0  0.11795956079019014  0.933767114830153  0.7975313745137873  1.0000
  H   H45       1.0  0.38204043980086494  0.4337671143715991  0.7975313745137873  1.0000
  H   H46       1.0  0.11795956079019014  0.566232885539124  0.29753137474653846  1.0000
  H   H47       1.0  0.6179595601113053  0.933767114830153  0.7024686252126123  1.0000
  H   H48       1.0  0.88204043912198  0.06623288508057008  0.2024686254453634  1.0000
  H   H49       1.0  0.4732525016706849  0.5486553377475081  0.14457367566457255  1.0000
  H   H50       1.0  0.0267474989203702  0.451344662163215  0.6445736754318215  1.0000
  H   H51       1.0  0.5267474995114253  0.04865533728895419  0.35542632452732925  1.0000
  H   H52       1.0  0.9732525009917999  0.9513446626217689  0.8554263247192311  1.0000
  H   H53       1.0  0.5267474995114253  0.451344662163215  0.8554263247192311  1.0000
  H   H54       1.0  0.9732525009917999  0.5486553377475081  0.35542632452732925  1.0000
  H   H55       1.0  0.4732525016706849  0.9513446626217689  0.6445736754318215  1.0000
  H   H56       1.0  0.0267474989203702  0.04865533728895419  0.14457367566457255  1.0000
  C   C1        1.0  0.512739704572741  0.5016780190786922  0.3767086221752134  1.0000
  C   C2        1.0  0.9872602959304845  0.4983219808320309  0.8767086219424624  1.0000
  C   C3        1.0  0.48726029533942933  0.0016780196265229635  0.12329137801668845  1.0000
  C   C4        1.0  0.012739703981685793  0.9983219802842002  0.6232913777839374  1.0000
  C   C5        1.0  0.48726029533942933  0.4983219808320309  0.6232913777839374  1.0000
  C   C6        1.0  0.012739703981685793  0.5016780190786922  0.12329137801668845  1.0000
  C   C7        1.0  0.512739704572741  0.9983219802842002  0.8767086219424624  1.0000
  C   C8        1.0  0.9872602959304845  0.0016780196265229635  0.3767086221752134  1.0000
  C   C9        1.0  0.5009503716117498  0.49887500430191156  0.440602933129255  1.0000
  C   C10       1.0  0.9990496288914756  0.5011249956088115  0.940602932896504  1.0000
  C   C11       1.0  0.49904962830042043  0.9988750037540808  0.05939706706264681  1.0000
  C   C12       1.0  0.0009503722906346508  0.0011249961566423211  0.5593970672545486  1.0000
  C   C13       1.0  0.49904962830042043  0.5011249956088115  0.5593970672545486  1.0000
  C   C14       1.0  0.0009503722906346508  0.49887500430191156  0.05939706706264681  1.0000
  C   C15       1.0  0.5009503716117498  0.0011249961566423211  0.940602932896504  1.0000
  C   C16       1.0  0.9990496288914756  0.9988750037540808  0.440602933129255  1.0000
  C   C17       1.0  0.4002748629823542  0.5920428923756161  0.46972080358238644  1.0000
  C   C18       1.0  0.09972513760870087  0.40795710753510694  0.9697208033496354  1.0000
  C   C19       1.0  0.599725136929816  0.09204289191706226  0.030279196609515356  1.0000
  C   C20       1.0  0.9002748635734094  0.9079571079936608  0.5302791963767644  1.0000
  C   C21       1.0  0.599725136929816  0.40795710753510694  0.5302791963767644  1.0000
  C   C22       1.0  0.9002748635734094  0.5920428923756161  0.030279196609515356  1.0000
  C   C23       1.0  0.4002748629823542  0.9079571079936608  0.9697208033496354  1.0000
  C   C24       1.0  0.09972513760870087  0.09204289191706226  0.46972080358238644  1.0000
  C   C25       1.0  0.6003513646577392  0.40640944390802014  0.470851696143483  1.0000
  C   C26       1.0  0.8996486345755462  0.5935905560027029  0.970851695910732  1.0000
  C   C27       1.0  0.39964863525443106  0.9064094433601894  0.029148304048418786  1.0000
  C   C28       1.0  0.10035136533662407  0.09359055655053372  0.5291483038156677  1.0000
  C   C29       1.0  0.39964863525443106  0.5935905560027029  0.5291483038156677  1.0000
  C   C30       1.0  0.10035136533662407  0.40640944390802014  0.029148304048418786  1.0000
  C   C31       1.0  0.6003513646577392  0.09359055655053372  0.970851695910732  1.0000
  C   C32       1.0  0.8996486345755462  0.9064094433601894  0.470851696143483  1.0000
  C   C33       1.0  0.4792254193134611  0.37947068609369583  0.20110006318118986  1.0000
  C   C34       1.0  0.020774581277594018  0.6205293138170273  0.7011000629484389  1.0000
  C   C35       1.0  0.5207745805987092  0.8794706865522496  0.298899937010712  1.0000
  C   C36       1.0  0.9792254186345762  0.12052931335847338  0.7988999367779609  1.0000
  C   C37       1.0  0.5207745805987092  0.6205293138170273  0.7988999367779609  1.0000
  C   C38       1.0  0.9792254186345762  0.37947068609369583  0.298899937010712  1.0000
  C   C39       1.0  0.4792254193134611  0.12052931335847338  0.7011000629484389  1.0000
  C   C40       1.0  0.020774581277594018  0.8794706865522496  0.20110006318118986  1.0000
  C   C41       1.0  0.49192290541013184  0.5289096448947452  0.1901960869458029  1.0000
  C   C42       1.0  0.008077095180923267  0.47109035501597785  0.6901960867130519  1.0000
  C   C43       1.0  0.5080770957719783  0.028909645442576026  0.30980391324609896  1.0000
  C   C44       1.0  0.9919229047312469  0.9710903544681471  0.809803913013348  1.0000
  C   C45       1.0  0.5080770957719783  0.47109035501597785  0.809803913013348  1.0000
  C   C46       1.0  0.9919229047312469  0.5289096448947452  0.30980391324609896  1.0000
  C   C47       1.0  0.49192290541013184  0.9710903544681471  0.6901960867130519  1.0000
  C   C48       1.0  0.008077095180923267  0.028909645442576026  0.1901960869458029  1.0000
  O   O1        1.0  0.4120736328674082  0.4167289193205574  0.3506634836386485  1.0000
  O   O2        1.0  0.08792636645370687  0.5832710805901657  0.8506634834058976  1.0000
  O   O3        1.0  0.587926367044762  0.9167289187727267  0.14933651655325325  1.0000
  O   O4        1.0  0.9120736334584634  0.08327108113799649  0.649336516745155  1.0000
  O   O5        1.0  0.587926367044762  0.5832710805901657  0.649336516745155  1.0000
  O   O6        1.0  0.9120736334584634  0.4167289193205574  0.14933651655325325  1.0000
  O   O7        1.0  0.4120736328674082  0.08327108113799649  0.8506634834058976  1.0000
  O   O8        1.0  0.08792636645370687  0.9167289187727267  0.3506634836386485  1.0000
  O   O9        1.0  0.6151324946328648  0.5786376352674648  0.3535592954138755  1.0000
  O   O10       1.0  0.8848675058703606  0.42136236464325827  0.8535592956057773  1.0000
  O   O11       1.0  0.38486750527930547  0.07863763480891095  0.14644070435337353  1.0000
  O   O12       1.0  0.11513249531174967  0.9213623651018121  0.6464407045452754  1.0000
  O   O13       1.0  0.38486750527930547  0.42136236464325827  0.6464407045452754  1.0000
  O   O14       1.0  0.11513249531174967  0.5786376352674648  0.14644070435337353  1.0000
  O   O15       1.0  0.6151324946328648  0.9213623651018121  0.8535592956057773  1.0000
  O   O16       1.0  0.8848675058703606  0.07863763480891095  0.3535592954138755  1.0000
  O   O17       1.0  0.5329634785884554  0.35018495973326125  0.2581560696549849  1.0000
  O   O18       1.0  0.9670365219147699  0.6498150401774618  0.7581560694222338  1.0000
  O   O19       1.0  0.4670365213237147  0.850184960191815  0.2418439305369169  1.0000
  O   O20       1.0  0.032963477997400376  0.14981503971890797  0.7418439303041658  1.0000
  O   O21       1.0  0.4670365213237147  0.6498150401774618  0.7418439303041658  1.0000
  O   O22       1.0  0.032963477997400376  0.35018495973326125  0.2418439305369169  1.0000
  O   O23       1.0  0.5329634785884554  0.14981503971890797  0.7581560694222338  1.0000
  O   O24       1.0  0.9670365219147699  0.850184960191815  0.2581560696549849  1.0000
  O   O25       1.0  0.3696936514421487  0.6039820815126518  0.22341812818080597  1.0000
  O   O26       1.0  0.13030634787896642  0.39601791839807127  0.7234181283727078  1.0000
  O   O27       1.0  0.6303063484700215  0.10398208206048261  0.276581871586443  1.0000
  O   O28       1.0  0.8696936520332038  0.8960179178502405  0.7765818717783447  1.0000
  O   O29       1.0  0.6303063484700215  0.39601791839807127  0.7765818717783447  1.0000
  O   O30       1.0  0.8696936520332038  0.6039820815126518  0.276581871586443  1.0000
  O   O31       1.0  0.3696936514421487  0.8960179178502405  0.7234181283727078  1.0000
  O   O32       1.0  0.13030634787896642  0.10398208206048261  0.22341812818080597  1.0000
  Br  Br1       1.0  0.2688836726770719  0.7152932424287258  0.4270068370738045  1.0000
  Br  Br2       1.0  0.2311163266440432  0.28470675748199725  0.9270068368410534  1.0000
  Br  Br3       1.0  0.7311163272350983  0.21529324197017194  0.07299316311809735  1.0000
  Br  Br4       1.0  0.768883673268127  0.7847067579405511  0.5729931628853463  1.0000
  Br  Br5       1.0  0.7311163272350983  0.28470675748199725  0.5729931628853463  1.0000
  Br  Br6       1.0  0.768883673268127  0.7152932424287258  0.07299316311809735  1.0000
  Br  Br7       1.0  0.2688836726770719  0.7847067579405511  0.9270068368410534  1.0000
  Br  Br8       1.0  0.2311163266440432  0.21529324197017194  0.4270068370738045  1.0000
  Br  Br9       1.0  0.730677617576103  0.279254756107992  0.4297912382031441  1.0000
  Br  Br10      1.0  0.7693223816571824  0.7207452438027311  0.9297912379703932  1.0000
  Br  Br11      1.0  0.2693223823360673  0.7792547565665459  0.07020876198875768  1.0000
  Br  Br12      1.0  0.2306776182549878  0.22074524334417722  0.5702087617560067  1.0000
  Br  Br13      1.0  0.2693223823360673  0.7207452438027311  0.5702087617560067  1.0000
  Br  Br14      1.0  0.2306776182549878  0.279254756107992  0.07020876198875768  1.0000
  Br  Br15      1.0  0.730677617576103  0.22074524334417722  0.9297912379703932  1.0000
  Br  Br16      1.0  0.7693223816571824  0.7792547565665459  0.4297912382031441  1.0000
