data_image0
_chemical_formula_structural       H112C80N4O16Cl4
_chemical_formula_sum              "H112 C80 N4 O16 Cl4"
_cell_length_a       36.463251718963825
_cell_length_b       5.498895078074797
_cell_length_c       9.994440685928364
_cell_angle_alpha    90.0
_cell_angle_beta     103.04585241957216
_cell_angle_gamma    90.0

_space_group_name_H-M_alt    "P 1"
_space_group_IT_number       1

loop_
  _space_group_symop_operation_xyz
  'x, y, z'

loop_
  _atom_site_type_symbol
  _atom_site_label
  _atom_site_symmetry_multiplicity
  _atom_site_fract_x
  _atom_site_fract_y
  _atom_site_fract_z
  _atom_site_occupancy
  H   H1        1.0  0.5008690088837459  0.2347487398235536  0.3353302054334916  1.0000
  H   H2        1.0  0.4991309911883472  0.2347487398235536  0.6646697947777398  1.0000
  H   H3        1.0  0.0008690089621014819  0.734748739998607  0.3353302055649064  1.0000
  H   H4        1.0  0.9991309911099916  0.734748739998607  0.664669794646325  1.0000
  H   H5        1.0  0.5066512683237457  0.30458953593753535  0.17526699009111832  1.0000
  H   H6        1.0  0.49334873168507715  0.30458953593753535  0.8247330090930484  1.0000
  H   H7        1.0  0.006651268402101342  0.8045895361125889  0.17526699022253311  1.0000
  H   H8        1.0  0.9933487316699916  0.8045895361125889  0.8247330099886984  1.0000
  H   H9        1.0  0.534318822897207  0.7824303644481132  0.06460498155255318  1.0000
  H   H10       1.0  0.465681177174886  0.7824303644481132  0.9353950186586781  1.0000
  H   H11       1.0  0.03431882291229245  0.2824303642730597  0.06460498065690343  1.0000
  H   H12       1.0  0.9656811770965305  0.2824303642730597  0.9353950185272635  1.0000
  H   H13       1.0  0.5629914257050354  0.34515753675091  0.34019186423479403  1.0000
  H   H14       1.0  0.43700857409274485  0.34515753675091  0.6598081359754023  1.0000
  H   H15       1.0  0.06299142578339106  0.8451575369259635  0.34019186436620885  1.0000
  H   H16       1.0  0.9370085742887019  0.8451575369259635  0.6598081358450225  1.0000
  H   H17       1.0  0.540886170629986  0.5397382542965532  0.4428124981651552  1.0000
  H   H18       1.0  0.45911382916779425  0.5397382542965532  0.5571875020450412  1.0000
  H   H19       1.0  0.04088617070834168  0.03973825412149966  0.44281249829656993  1.0000
  H   H20       1.0  0.9591138293637513  0.03973825412149966  0.5571875019146614  1.0000
  H   H21       1.0  0.5320089869569529  0.8597640076550105  0.2685737785270837  1.0000
  H   H22       1.0  0.4679910128408275  0.8597640076550105  0.7314262216831127  1.0000
  H   H23       1.0  0.03200898703530853  0.3597640092985041  0.2685737786584985  1.0000
  H   H24       1.0  0.9679910130367845  0.3597640092985041  0.731426221552733  1.0000
  H   H25       1.0  0.5967665018001806  0.817863066333419  0.43220112788860054  1.0000
  H   H26       1.0  0.4032334982719124  0.817863066333419  0.5677988723226308  1.0000
  H   H27       1.0  0.09676650187853622  0.3178630661583655  0.43220112802001537  1.0000
  H   H28       1.0  0.9032334981935568  0.3178630661583655  0.567798872191216  1.0000
  H   H29       1.0  0.6105838483363378  0.6511883531434226  0.296642367930757  1.0000
  H   H30       1.0  0.38941615173575517  0.6511883531434226  0.7033576322804744  1.0000
  H   H31       1.0  0.11058384814038087  0.15118835296836908  0.29664236806113675  1.0000
  H   H32       1.0  0.8894161516573996  0.15118835296836908  0.7033576321490597  1.0000
  H   H33       1.0  0.6619913384793898  0.7874123016575045  0.37439780452526933  1.0000
  H   H34       1.0  0.33800866159270315  0.7874123016575045  0.625602195685962  1.0000
  H   H35       1.0  0.16199133828343282  0.28741230148245106  0.3743978046556492  1.0000
  H   H36       1.0  0.8380086615143475  0.28741230148245106  0.6256021955545472  1.0000
  H   H37       1.0  0.7318898604354224  0.2892974420157433  0.21714034579635974  1.0000
  H   H38       1.0  0.2681101396366706  0.2892974420157433  0.7828596544148716  1.0000
  H   H39       1.0  0.23188986051377805  0.7892974421907968  0.21714034592777454  1.0000
  H   H40       1.0  0.768110139558315  0.7892974421907968  0.7828596542834568  1.0000
  H   H41       1.0  0.6743930254559589  0.5219724106838028  0.09916810415245823  1.0000
  H   H42       1.0  0.3256069745528639  0.5219724106838028  0.9008318950317086  1.0000
  H   H43       1.0  0.1743930255343146  0.02197241050874921  0.09916810428387304  1.0000
  H   H44       1.0  0.8256069745377784  0.02197241050874921  0.9008318959273582  1.0000
  H   H45       1.0  0.6108821216620629  0.38219535382293623  0.11688946796353732  1.0000
  H   H46       1.0  0.3891178781357174  0.38219535382293623  0.883110532246659  1.0000
  H   H47       1.0  0.11088212174041855  0.8821953539979898  0.1168894680949521  1.0000
  H   H48       1.0  0.8891178783316745  0.8821953539979898  0.8831105321162794  1.0000
  H   H49       1.0  0.7600269464110808  0.9546409806818639  0.35358346663475937  1.0000
  H   H50       1.0  0.23997305359774196  0.9546409806818639  0.6464165325494075  1.0000
  H   H51       1.0  0.2600269462151239  0.4546409823253576  0.3535834667651392  1.0000
  H   H52       1.0  0.7399730535826565  0.4546409823253576  0.6464165334450572  1.0000
  H   H53       1.0  0.731746514508482  0.686876137182522  0.3450223579632314  1.0000
  H   H54       1.0  0.2682534852892983  0.686876137182522  0.6549776422469651  1.0000
  H   H55       1.0  0.23174651458683765  0.1868761370074685  0.34502235809464615  1.0000
  H   H56       1.0  0.7682534854852554  0.1868761370074685  0.6549776421165853  1.0000
  H   H57       1.0  0.7363493804377644  0.8846234236029612  0.4863789728184841  1.0000
  H   H58       1.0  0.2636506192967458  0.8846234236029612  0.5136210263646477  1.0000
  H   H59       1.0  0.23634938051612006  0.38462342342790756  0.48637897294989896  1.0000
  H   H60       1.0  0.7636506195559729  0.38462342342790756  0.5136210272613323  1.0000
  H   H61       1.0  0.4754777983499824  0.6940940053972209  0.1845536049525232  1.0000
  H   H62       1.0  0.5245222017221106  0.6940940053972209  0.8154463952587082  1.0000
  H   H63       1.0  0.9754777982716267  0.19409400522216733  0.1845536048211084  1.0000
  H   H64       1.0  0.024522201526153524  0.19409400522216733  0.8154463953890879  1.0000
  H   H65       1.0  0.46972827599490824  0.6155901798339342  0.35024602764104773  1.0000
  H   H66       1.0  0.5302717240771847  0.6155901798339342  0.6497539725701837  1.0000
  H   H67       1.0  0.9697282759165525  0.11559017965888058  0.3502460275096329  1.0000
  H   H68       1.0  0.03027172415554037  0.11559017965888058  0.6497539727015985  1.0000
  H   H69       1.0  0.4353501415983724  0.22530159648613465  0.23872033739428877  1.0000
  H   H70       1.0  0.5646498584737206  0.22530159648613465  0.7612796628169425  1.0000
  H   H71       1.0  0.9353501417943294  0.7253015948426411  0.23872033726390898  1.0000
  H   H72       1.0  0.06464985827776364  0.7253015948426411  0.7612796629473223  1.0000
  H   H73       1.0  0.4372021122997285  0.3517000529271953  0.07723922591044181  1.0000
  H   H74       1.0  0.5627978877723645  0.3517000529271953  0.9227607743007896  1.0000
  H   H75       1.0  0.9372021122213728  0.8517000531022487  0.07723922577902702  1.0000
  H   H76       1.0  0.0627978878507201  0.8517000531022487  0.9227607744322043  1.0000
  H   H77       1.0  0.3882703509541999  0.3244123909751992  0.3493175706248473  1.0000
  H   H78       1.0  0.6117296491178932  0.3244123909751992  0.6506824295863841  1.0000
  H   H79       1.0  0.8882703508758443  0.8244123911502528  0.3493175704934325  1.0000
  H   H80       1.0  0.1117296491962487  0.8244123911502528  0.6506824297177989  1.0000
  H   H81       1.0  0.34761000452377183  0.014987634575645371  0.029768570293192326  1.0000
  H   H82       1.0  0.6523899955483212  0.014987634575645371  0.9702314299180391  1.0000
  H   H83       1.0  0.8476100044454162  0.5149876347506989  0.029768570161777523  1.0000
  H   H84       1.0  0.15238999535236414  0.5149876347506989  0.9702314300484189  1.0000
  H   H85       1.0  0.40515005864056286  0.7866047594263924  0.021219982769780307  1.0000
  H   H86       1.0  0.5948499414315301  0.7866047594263924  0.9787800174414509  1.0000
  H   H87       1.0  0.9051500585622072  0.28660475925133894  0.021219982638365508  1.0000
  H   H88       1.0  0.09484994123557312  0.28660475925133894  0.978780017571831  1.0000
  H   H89       1.0  0.31509272298058827  0.35065007835629997  0.5334610816656475  1.0000
  H   H90       1.0  0.6849072770915047  0.35065007835629997  0.46653891854558377  1.0000
  H   H91       1.0  0.8150927229022328  0.8506500785313534  0.5334610815342329  1.0000
  H   H92       1.0  0.1849072771698603  0.8506500785313534  0.4665389186769986  1.0000
  H   H93       1.0  0.36373982361028717  0.37182898763652095  0.5291910323597426  1.0000
  H   H94       1.0  0.6362601764618059  0.37182898763652095  0.47080896785148874  1.0000
  H   H95       1.0  0.8637398235319316  0.8718289878115745  0.5291910322283279  1.0000
  H   H96       1.0  0.13626017654016148  0.8718289878115745  0.47080896798290345  1.0000
  H   H97       1.0  0.33255130155618917  0.1848074796065743  0.406595708951378  1.0000
  H   H98       1.0  0.6674486985159038  0.1848074796065743  0.5934042912598534  1.0000
  H   H99       1.0  0.8325513014778335  0.6848074797816278  0.4065957088199632  1.0000
  H   H100      1.0  0.1674486985942594  0.6848074797816278  0.5934042913912682  1.0000
  H   H101      1.0  0.2614059354657704  0.1601008961800789  0.13114998553066845  1.0000
  H   H102      1.0  0.7385940646063226  0.1601008961800789  0.868850014680563  1.0000
  H   H103      1.0  0.7614059353874149  0.6601008963551325  0.13114998539925363  1.0000
  H   H104      1.0  0.23859406468467825  0.6601008963551325  0.8688500148119778  1.0000
  H   H105      1.0  0.2822058613056277  0.02083336531674804  0.0029865700175913524  1.0000
  H   H106      1.0  0.7177941387031952  0.02083336531674804  0.9970134291665754  1.0000
  H   H107      1.0  0.7822058612905423  0.5208333654918016  0.002986570913241098  1.0000
  H   H108      1.0  0.21779413878155077  0.5208333654918016  0.9970134292979902  1.0000
  H   H109      1.0  0.3074321343411513  0.24983738196383035  0.11366552742194029  1.0000
  H   H110      1.0  0.692567865393359  0.24983738196383035  0.8863344717611916  1.0000
  H   H111      1.0  0.8074321345371083  0.749837382138884  0.11366552729156047  1.0000
  H   H112      1.0  0.19256786547171462  0.749837382138884  0.8863344718926064  1.0000
  C   C1        1.0  0.5419367278296084  0.4892461561463176  0.3376288749570305  1.0000
  C   C2        1.0  0.4580632722424845  0.4892461561463176  0.6623711252542008  1.0000
  C   C3        1.0  0.041936727907964086  0.9892461563213711  0.3376288750884453  1.0000
  C   C4        1.0  0.958063272164129  0.9892461563213711  0.6623711251227861  1.0000
  C   C5        1.0  0.5512286703974525  0.7090395606102462  0.259360207491376  1.0000
  C   C6        1.0  0.4487713296746404  0.7090395606102462  0.7406397927198552  1.0000
  C   C7        1.0  0.05122867047580817  0.20903956043519265  0.25936020762279083  1.0000
  C   C8        1.0  0.9487713295962847  0.20903956043519265  0.7406397925884405  1.0000
  C   C9        1.0  0.5913324132758238  0.7910162111190646  0.3198588616876638  1.0000
  C   C10       1.0  0.40866758679626924  0.7910162111190646  0.6801411385235676  1.0000
  C   C11       1.0  0.09133241307986674  0.29101621094401114  0.31985886181804357  1.0000
  C   C12       1.0  0.9086675869922263  0.29101621094401114  0.6801411383931877  1.0000
  C   C13       1.0  0.6324426298126226  0.07536286728807504  0.24540055928550994  1.0000
  C   C14       1.0  0.3675573702594704  0.07536286728807504  0.7545994409257214  1.0000
  C   C15       1.0  0.13244262989097821  0.5753628674631286  0.2454005594169247  1.0000
  C   C16       1.0  0.8675573701811147  0.5753628674631286  0.7545994407943066  1.0000
  C   C17       1.0  0.6642900529030457  0.9447982796971146  0.31089800560526404  1.0000
  C   C18       1.0  0.3357099471057773  0.9447982796971146  0.6891019935789028  1.0000
  C   C19       1.0  0.16429005298140117  0.4447982813406082  0.3108980057366788  1.0000
  C   C20       1.0  0.8357099470906918  0.4447982813406082  0.6891019944745526  1.0000
  C   C21       1.0  0.7002840301627345  0.020357971630764995  0.3005343291612835  1.0000
  C   C22       1.0  0.2997159699093585  0.020357971630764995  0.6994656710499478  1.0000
  C   C23       1.0  0.20028403024109007  0.5203579718058186  0.30053432929269824  1.0000
  C   C24       1.0  0.7997159698310029  0.5203579718058186  0.6994656709185331  1.0000
  C   C25       1.0  0.7038828343962155  0.229395389817409  0.22455604898686782  1.0000
  C   C26       1.0  0.29611716540156496  0.229395389817409  0.7754439512233285  1.0000
  C   C27       1.0  0.20388283447457106  0.7293953899924627  0.22455604911828259  1.0000
  C   C28       1.0  0.7961171655975219  0.7293953899924627  0.7754439510929488  1.0000
  C   C29       1.0  0.6718051211929251  0.35966459659972766  0.15912743677157928  1.0000
  C   C30       1.0  0.3281948786048554  0.35966459659972766  0.840872563438617  1.0000
  C   C31       1.0  0.17180512127128061  0.8596645967747811  0.1591274369029941  1.0000
  C   C32       1.0  0.8281948788008123  0.8596645967747811  0.8408725633082373  1.0000
  C   C33       1.0  0.6360608262001168  0.2837632156724659  0.1683516368342394  1.0000
  C   C34       1.0  0.3639391735343934  0.2837632156724659  0.8316483623488924  1.0000
  C   C35       1.0  0.13606082627847244  0.7837632158475195  0.1683516369656542  1.0000
  C   C36       1.0  0.8639391737936205  0.7837632158475195  0.8316483632455771  1.0000
  C   C37       1.0  0.734073692571475  0.8798310935755937  0.3746984746557649  1.0000
  C   C38       1.0  0.2659263074373477  0.8798310935755937  0.6253015245284019  1.0000
  C   C39       1.0  0.23407369237551814  0.37983109521908753  0.37469847478614476  1.0000
  C   C40       1.0  0.7659263074222622  0.37983109521908753  0.6253015254240517  1.0000
  C   C41       1.0  0.47121635003270185  0.541110117169529  0.2497379240220795  1.0000
  C   C42       1.0  0.5287836500393912  0.541110117169529  0.7502620761891519  1.0000
  C   C43       1.0  0.9712163499543461  0.04111011881302258  0.2497379238906647  1.0000
  C   C44       1.0  0.028783650117746806  0.04111011881302258  0.7502620763205666  1.0000
  C   C45       1.0  0.43588558522081194  0.3976904085185118  0.1831493958643239  1.0000
  C   C46       1.0  0.564114414851281  0.3976904085185118  0.8168506043469075  1.0000
  C   C47       1.0  0.9358855851424563  0.8976904086935654  0.1831493957329091  1.0000
  C   C48       1.0  0.06411441486636647  0.8976904086935654  0.8168506034512577  1.0000
  C   C49       1.0  0.4008431591714091  0.5413986296756733  0.1858869738838829  1.0000
  C   C50       1.0  0.5991568409006838  0.5413986296756733  0.8141130263273485  1.0000
  C   C51       1.0  0.9008431590930536  0.04139862950061974  0.18588697375246807  1.0000
  C   C52       1.0  0.09915684070472684  0.04139862950061974  0.8141130264577283  1.0000
  C   C53       1.0  0.3795030979151348  0.4795956010354208  0.2817642009503808  1.0000
  C   C54       1.0  0.6204969020936881  0.4795956010354208  0.718235798233786  1.0000
  C   C55       1.0  0.8795030979000493  0.9795956012104744  0.28176420184603057  1.0000
  C   C56       1.0  0.12049690217204367  0.9795956012104744  0.7182357983652008  1.0000
  C   C57       1.0  0.34704167202242464  0.6089919306429888  0.2885029102591101  1.0000
  C   C58       1.0  0.6529583279863981  0.6089919306429888  0.7114970889250567  1.0000
  C   C59       1.0  0.8470416720073393  0.10899193228648245  0.2885029111547599  1.0000
  C   C60       1.0  0.15295832806475382  0.10899193228648245  0.7114970890564716  1.0000
  C   C61       1.0  0.33500130574893877  0.8034907953811845  0.19608640731600543  1.0000
  C   C62       1.0  0.6649986943231542  0.8034907953811845  0.803913592895226  1.0000
  C   C63       1.0  0.8350013056705832  0.303490795206131  0.19608640718459064  1.0000
  C   C64       1.0  0.16499869433823972  0.303490795206131  0.8039135919995761  1.0000
  C   C65       1.0  0.3563178876430231  0.8658926043133411  0.10157629895561414  1.0000
  C   C66       1.0  0.6436821121547573  0.8658926043133411  0.8984237012545822  1.0000
  C   C67       1.0  0.8563178878389801  0.3658926041382876  0.10157629882523433  1.0000
  C   C68       1.0  0.14368211223311292  0.3658926041382876  0.898423701385997  1.0000
  C   C69       1.0  0.38916520765070195  0.7364932159094585  0.09714969227770623  1.0000
  C   C70       1.0  0.610834792421391  0.7364932159094585  0.902850307933525  1.0000
  C   C71       1.0  0.8891652075723464  0.23649321573440482  0.09714969214629143  1.0000
  C   C72       1.0  0.11083479249974666  0.23649321573440482  0.90285030806494  1.0000
  C   C73       1.0  0.33495820583355634  0.35426871804981575  0.46637867510929404  1.0000
  C   C74       1.0  0.6650417942385367  0.35426871804981575  0.5336213251019374  1.0000
  C   C75       1.0  0.8349582057552007  0.8542687182248693  0.4663786749778792  1.0000
  C   C76       1.0  0.16504179431689228  0.8542687182248693  0.5336213252333522  1.0000
  C   C77       1.0  0.28770600507382976  0.09656526492335031  0.10752932981030111  1.0000
  C   C78       1.0  0.7122939949982632  0.09656526492335031  0.8924706704009303  1.0000
  C   C79       1.0  0.7877060049954742  0.5965652650984039  0.1075293296788863  1.0000
  C   C80       1.0  0.2122939950133487  0.5965652650984039  0.8924706695052806  1.0000
  N   N1        1.0  0.5050167091968839  0.37942283865697357  0.2704255136679818  1.0000
  N   N2        1.0  0.494983290811939  0.37942283865697357  0.729574485516185  1.0000
  N   N3        1.0  0.005016709275239484  0.8794228388320271  0.2704255137993966  1.0000
  N   N4        1.0  0.9949832907968535  0.8794228388320271  0.7295744864118348  1.0000
  O   O1        1.0  0.5964871525628757  0.01489154436252114  0.25314859559030733  1.0000
  O   O2        1.0  0.40351284750921734  0.01489154436252114  0.746851404620924  1.0000
  O   O3        1.0  0.09648715264123128  0.5148915445375747  0.25314859572172216  1.0000
  O   O4        1.0  0.9035128474308617  0.5148915445375747  0.7468514044895093  1.0000
  O   O5        1.0  0.5471547370254106  0.6432409492778264  0.11899360319414037  1.0000
  O   O6        1.0  0.45284526277236964  0.6432409492778264  0.881006397016056  1.0000
  O   O7        1.0  0.047154737103766324  0.1432409491027728  0.11899360332555518  1.0000
  O   O8        1.0  0.9528452629683267  0.1432409491027728  0.8810063968856762  1.0000
  O   O9        1.0  0.3248865389117215  0.5608840932967601  0.37887964501979643  1.0000
  O   O10       1.0  0.6751134610971014  0.5608840932967601  0.6211203541643704  1.0000
  O   O11       1.0  0.8248865388966361  0.06088409494025374  0.3788796459154462  1.0000
  O   O12       1.0  0.17511346117545698  0.06088409494025374  0.6211203542957852  1.0000
  O   O13       1.0  0.3021604534468831  0.914619071393671  0.20774275988837915  1.0000
  O   O14       1.0  0.69783954662521  0.914619071393671  0.7922572403228522  1.0000
  O   O15       1.0  0.8021604533685275  0.4146190712186175  0.20774275975696432  1.0000
  O   O16       1.0  0.19783954670356552  0.4146190712186175  0.7922572404542669  1.0000
  Cl  Cl1       1.0  0.4999999999216444  0.07648161749382616  0.9999999998685852  1.0000
  Cl  Cl2       1.0  0.0  0.5764816176688796  0.0  1.0000
  Cl  Cl3       1.0  0.5000000000360465  0.013842693653767618  0.5000000001056157  1.0000
  Cl  Cl4       1.0  1.1440210139594478e-10  0.5138426938288212  0.5000000002370304  1.0000
