data_image0
_chemical_formula_structural       H96C144N16O16
_chemical_formula_sum              "H96 C144 N16 O16"
_cell_length_a       7.215956454743398
_cell_length_b       11.97878966285054
_cell_length_c       29.96551076717669
_cell_angle_alpha    90.0
_cell_angle_beta     89.31875612070569
_cell_angle_gamma    90.0

_space_group_name_H-M_alt    "P 1"
_space_group_IT_number       1

loop_
  _space_group_symop_operation_xyz
  'x, y, z'

loop_
  _atom_site_type_symbol
  _atom_site_label
  _atom_site_symmetry_multiplicity
  _atom_site_fract_x
  _atom_site_fract_y
  _atom_site_fract_z
  _atom_site_occupancy
  H   H1        1.0  0.005600915364791355  0.7091786540292635  0.4413233060550075  1.0000
  H   H2        1.0  0.0056009149108181226  0.7908213456137883  0.9413233060237234  1.0000
  H   H3        1.0  0.9943990841318443  0.290821345732771  0.5586766939627018  1.0000
  H   H4        1.0  0.9943990845858175  0.2091786541482462  0.05867669399398603  1.0000
  H   H5        1.0  0.5243207452042258  0.23732114595987544  0.6041109978260325  1.0000
  H   H6        1.0  0.5243207456581991  0.26267885392114176  0.10411099785731674  1.0000
  H   H7        1.0  0.4756792542924098  0.762678853802159  0.3958890021916768  1.0000
  H   H8        1.0  0.4756792538384366  0.7373211458408927  0.8958890021603926  1.0000
  H   H9        1.0  0.5129083571635309  0.6252774821840908  0.504185713674466  1.0000
  H   H10       1.0  0.5129083562316183  0.8747225174589608  0.004185713707522151  1.0000
  H   H11       1.0  0.4870916437189904  0.37472251757794356  0.49581428634147146  1.0000
  H   H12       1.0  0.4870916432650172  0.12527748230307365  0.9958142863101872  1.0000
  H   H13       1.0  0.8307116538784381  0.5958826234453986  0.531797233527308  1.0000
  H   H14       1.0  0.8307116543324115  0.9041173761976531  0.03179723355859224  1.0000
  H   H15       1.0  0.1692883456181975  0.40411737631663597  0.4682027664904013  1.0000
  H   H16       1.0  0.1692883465501099  0.09588262356438128  0.9682027664573452  1.0000
  H   H17       1.0  0.9878011122236436  0.7465979904243342  0.5749294350417161  1.0000
  H   H18       1.0  0.9878011126776167  0.7534020092187176  0.07492943507300051  1.0000
  H   H19       1.0  0.012198887272992075  0.25340200933770024  0.4250705649759931  1.0000
  H   H20       1.0  0.012198888204904479  0.24659799054331694  0.9250705649429368  1.0000
  H   H21       1.0  0.826772737358578  0.9252862978614514  0.5897251726192093  1.0000
  H   H22       1.0  0.8267727364266655  0.5747137026164091  0.08972517265226558  1.0000
  H   H23       1.0  0.17322726352394333  0.07471370273539185  0.410274827396728  1.0000
  H   H24       1.0  0.17322726306997008  0.4252862979804342  0.9102748273654436  1.0000
  H   H25       1.0  0.23710723668798028  0.07911145505283793  0.5496317879553101  1.0000
  H   H26       1.0  0.23710723575606787  0.4208885448281793  0.04963178798836632  1.0000
  H   H27       1.0  0.7628927641945409  0.9208885455440055  0.4503682120606272  1.0000
  H   H28       1.0  0.7628927637405678  0.5791114549338551  0.9503682120293431  1.0000
  H   H29       1.0  0.08306958274176975  0.9288960932762672  0.5069173233429364  1.0000
  H   H30       1.0  0.08306958319574298  0.5711039072015933  0.006917323374220524  1.0000
  H   H31       1.0  0.9169304167548659  0.07110390732057612  0.49308267667477307  1.0000
  H   H32       1.0  0.9169304176867783  0.4288960925604411  0.9930826766417169  1.0000
  H   H33       1.0  0.13309019573861397  0.2674253551621085  0.8335498465240202  1.0000
  H   H34       1.0  0.1330901961925872  0.23257464471890865  0.33354984655530445  1.0000
  H   H35       1.0  0.8669098037580216  0.7325746445999258  0.16645015349368913  1.0000
  H   H36       1.0  0.8669098033040484  0.7674253550431258  0.6664501534624049  1.0000
  H   H37       1.0  0.24623365048796922  0.4614096553628552  0.8204336634040847  1.0000
  H   H38       1.0  0.24623364955605684  0.03859034535297089  0.32043366343714097  1.0000
  H   H39       1.0  0.7537663503945521  0.5385903452339881  0.17956633661185264  1.0000
  H   H40       1.0  0.7537663499405788  0.9614096552438725  0.6795663365805685  1.0000
  H   H41       1.0  0.24925641560083323  0.5364134692111233  0.7424341541186515  1.0000
  H   H42       1.0  0.24925641466892082  0.9635865304319284  0.24243415415170777  1.0000
  H   H43       1.0  0.750743585281688  0.46358653055091115  0.2575658458972858  1.0000
  H   H44       1.0  0.7507435848277149  0.03641346933010609  0.7575658458660016  1.0000
  H   H45       1.0  0.9504765591498336  0.12304259791546103  0.70055230562872  1.0000
  H   H46       1.0  0.9504765582179212  0.37695740280036505  0.2005523056617761  1.0000
  H   H47       1.0  0.049523441732687565  0.8769574026813823  0.2994476943872175  1.0000
  H   H48       1.0  0.04952344127871435  0.6230425977964783  0.7994476943559332  1.0000
  H   H49       1.0  0.955365116434177  0.18118881131464112  0.6212803295225118  1.0000
  H   H50       1.0  0.9553651168881502  0.3188111885663761  0.12128032955379602  1.0000
  H   H51       1.0  0.0446348830624587  0.8188111884473933  0.3787196704951976  1.0000
  H   H52       1.0  0.04463488399437111  0.6811888111956583  0.8787196704621413  1.0000
  H   H53       1.0  0.2627662652155266  0.58567510887661  0.6761405321148843  1.0000
  H   H54       1.0  0.2627662642836142  0.9143248907664416  0.17614053214794062  1.0000
  H   H55       1.0  0.7372337356669946  0.41432489088542446  0.32385946790105297  1.0000
  H   H56       1.0  0.7372337352130214  0.08567510899559277  0.8238594678697686  1.0000
  H   H57       1.0  0.2625756130589048  0.6283492457792155  0.5955760720228667  1.0000
  H   H58       1.0  0.26257561351287806  0.8716507538638362  0.09557607205415082  1.0000
  H   H59       1.0  0.7374243864377308  0.3716507539828189  0.4044239279948428  1.0000
  H   H60       1.0  0.7374243873696433  0.12834924589819832  0.9044239279617866  1.0000
  H   H61       1.0  0.13853804108665285  0.4881561730843926  0.541930501167309  1.0000
  H   H62       1.0  0.13853804154062607  0.011843826796624685  0.041930501198593095  1.0000
  H   H63       1.0  0.8614619584191029  0.5118438266776419  0.4580694985166646  1.0000
  H   H64       1.0  0.8614619579560095  0.9881561729654098  0.9580694988191163  1.0000
  H   H65       1.0  0.6789113714645676  0.32585167198529363  0.8784871358086513  1.0000
  H   H66       1.0  0.6789113719185408  0.1741483278957236  0.3784871358399355  1.0000
  H   H67       1.0  0.3210886280320681  0.6741483277767408  0.12151286420905814  1.0000
  H   H68       1.0  0.3210886289639805  0.8258516718663109  0.6215128641760019  1.0000
  H   H69       1.0  0.7888806324898388  0.5127164165046773  0.8521862355322805  1.0000
  H   H70       1.0  0.7888806329529319  0.9872835839731832  0.35218623522982884  1.0000
  H   H71       1.0  0.211119367006797  0.48728358409216604  0.14781376448542888  1.0000
  H   H72       1.0  0.21111936654370372  0.012716415788851188  0.6478137647878806  1.0000
  H   H73       1.0  0.7859681529097325  0.5551416793487254  0.7706865837216702  1.0000
  H   H74       1.0  0.7859681533637057  0.9448583202943264  0.27068658375295457  1.0000
  H   H75       1.0  0.21403184658690308  0.444858320413309  0.22931341629603902  1.0000
  H   H76       1.0  0.21403184613292986  0.05514167946770813  0.7293134162647548  1.0000
  H   H77       1.0  0.4915400887993164  0.12912351443959894  0.7580750412948498  1.0000
  H   H78       1.0  0.491540087867404  0.37087648544141827  0.25807504132790604  1.0000
  H   H79       1.0  0.5084599120832048  0.8708764853224356  0.24192495872108755  1.0000
  H   H80       1.0  0.5084599116292315  0.6291235143206161  0.7419249586898033  1.0000
  H   H81       1.0  0.4788051208344934  0.15673748123507944  0.675765702834634  1.0000
  H   H82       1.0  0.478805119902581  0.34326251864593776  0.17576570286769014  1.0000
  H   H83       1.0  0.5211948800480279  0.843262518526955  0.3242342971813035  1.0000
  H   H84       1.0  0.5211948795940546  0.6567374819509055  0.8242342971500192  1.0000
  H   H85       1.0  0.7776111800143292  0.5793858490999196  0.7030827152836583  1.0000
  H   H86       1.0  0.7776111790824167  0.920614150543132  0.2030827153167145  1.0000
  H   H87       1.0  0.22238882086819206  0.42061415066211477  0.29691728473227913  1.0000
  H   H88       1.0  0.2223888204142188  0.07938584921890243  0.7969172847009948  1.0000
  H   H89       1.0  0.7417610233372163  0.597482078861117  0.6209110839199933  1.0000
  H   H90       1.0  0.7417610237911895  0.9025179207819346  0.12091108395127757  1.0000
  H   H91       1.0  0.2582389761594194  0.40251792090091737  0.379088916097716  1.0000
  H   H92       1.0  0.2582389757054461  0.09748207898009985  0.8790889160664318  1.0000
  H   H93       1.0  0.6260043054216797  0.4338688403652327  0.5773402593623291  1.0000
  H   H94       1.0  0.626004305875653  0.06613115951578455  0.07734025939361337  1.0000
  H   H95       1.0  0.3739956940749558  0.5661311593968018  0.4226597406553802  1.0000
  H   H96       1.0  0.3739956950068682  0.9338688402462498  0.922659740622324  1.0000
  C   C1        1.0  0.4845202066530756  0.7916972070568302  0.5311516968325452  1.0000
  C   C2        1.0  0.4845202057211632  0.7083027934210304  0.031151696865601288  1.0000
  C   C3        1.0  0.5154797942294457  0.2083027935400132  0.4688483031833923  1.0000
  C   C4        1.0  0.5154797937754724  0.29169720717581293  0.968848303152108  1.0000
  C   C5        1.0  0.5816742802217764  0.6902417650459386  0.5231343617848939  1.0000
  C   C6        1.0  0.5816742806757496  0.809758234597113  0.023134361816178117  1.0000
  C   C7        1.0  0.4183257192748593  0.3097582347160958  0.47686563823281547  1.0000
  C   C8        1.0  0.4183257188208861  0.1902417651649214  0.9768656382015312  1.0000
  C   C9        1.0  0.7585237742729816  0.674133040756503  0.5387324077328216  1.0000
  C   C10       1.0  0.7585237747269548  0.8258669588865486  0.038732407764105796  1.0000
  C   C11       1.0  0.24147622522365397  0.3258669590055314  0.46126759228488784  1.0000
  C   C12       1.0  0.2414762261555664  0.17413304087548584  0.9612675922518316  1.0000
  C   C13       1.0  0.8467927699224244  0.7592492084743502  0.563170388790904  1.0000
  C   C14       1.0  0.846792768990512  0.7407507911687016  0.06317038882396009  1.0000
  C   C15       1.0  0.15320723096009684  0.24075079128768426  0.4368296112250335  1.0000
  C   C16       1.0  0.1532072305061236  0.25924920859333295  0.9368296111937493  1.0000
  C   C17       1.0  0.7579430674888747  0.8591572353855772  0.5714433889951627  1.0000
  C   C18       1.0  0.7579430679428479  0.6408427642574744  0.07144338902644685  1.0000
  C   C19       1.0  0.24205693200776085  0.1408427643764572  0.4285566110225468  1.0000
  C   C20       1.0  0.24205693155378763  0.35915723550455997  0.9285566109912625  1.0000
  C   C21       1.0  0.5753117906721327  0.878988920112185  0.5559875149993275  1.0000
  C   C22       1.0  0.5753117897402202  0.6210110795308666  0.05598751503238365  1.0000
  C   C23       1.0  0.4246882102103886  0.12101107964984946  0.44401248501660995  1.0000
  C   C24       1.0  0.4246882097564154  0.37898892023116776  0.9440124849853258  1.0000
  C   C25       1.0  0.48097994538180133  0.9832084126600589  0.5629370912211736  1.0000
  C   C26       1.0  0.48097994444988895  0.5167915878178018  0.06293709125422983  1.0000
  C   C27       1.0  0.51902005550072  0.0167915879367845  0.4370629087947637  1.0000
  C   C28       1.0  0.5190200550467468  0.48320841194423275  0.9370629087634796  1.0000
  C   C29       1.0  0.3071041352713486  0.9994276397663279  0.5448023738704953  1.0000
  C   C30       1.0  0.30710413433943623  0.5005723598767239  0.044802373903551435  1.0000
  C   C31       1.0  0.6928958656111726  0.0005723599957066501  0.4551976261454421  1.0000
  C   C32       1.0  0.6928958651571995  0.4994276398853106  0.9551976261141578  1.0000
  C   C33       1.0  0.21999900937649208  0.9148167134101158  0.520548962311707  1.0000
  C   C34       1.0  0.2199990098304653  0.5851832870677447  0.020548962342991306  1.0000
  C   C35       1.0  0.7800009901201436  0.08518328718672749  0.4794510377060023  1.0000
  C   C36       1.0  0.7800009896661703  0.4148167126942897  0.9794510376747182  1.0000
  C   C37       1.0  0.3032742999014035  0.8119240468978716  0.513818583866917  1.0000
  C   C38       1.0  0.3032743003553768  0.688075953579989  0.013818583898201332  1.0000
  C   C39       1.0  0.6967256995952322  0.1880759528641629  0.48618141615079224  1.0000
  C   C40       1.0  0.6967256991412588  0.3119240470168543  0.9861814161195079  1.0000
  C   C41       1.0  0.19593668022592572  0.7267170219205991  0.48809564281881956  1.0000
  C   C42       1.0  0.19593667977195253  0.7732829777224527  0.9880956427875353  1.0000
  C   C43       1.0  0.8040633206565955  0.27328297784143546  0.5119043571971178  1.0000
  C   C44       1.0  0.8040633197246831  0.22671702203958174  0.011904357230174047  1.0000
  C   C45       1.0  0.5577700130769926  0.07618156639231291  0.5905762127786611  1.0000
  C   C46       1.0  0.5577700135309659  0.42381843348870435  0.09057621280994546  1.0000
  C   C47       1.0  0.442229986419643  0.9238184342045305  0.4094237872390481  1.0000
  C   C48       1.0  0.4422299873515554  0.5761815662733302  0.9094237872059919  1.0000
  C   C49       1.0  0.13394773583807423  0.3020034111809529  0.7997762808206534  1.0000
  C   C50       1.0  0.13394773490616182  0.19799658870006429  0.29977628085370955  1.0000
  C   C51       1.0  0.866052265044447  0.6979965894158904  0.20022371919528406  1.0000
  C   C52       1.0  0.8660522645904738  0.8020034110619702  0.7002237191639997  1.0000
  C   C53       1.0  0.1985090163511136  0.4114092849700528  0.792372677022705  1.0000
  C   C54       1.0  0.19850901541920118  0.08859071491096443  0.2923726770557612  1.0000
  C   C55       1.0  0.8014909845405277  0.5885907147919817  0.20762732265949654  1.0000
  C   C56       1.0  0.8014909840774344  0.91140928485107  0.7076273229619482  1.0000
  C   C57       1.0  0.20149927895359815  0.4518850253116377  0.7491788880696068  1.0000
  C   C58       1.0  0.20149927802168577  0.04811497456937952  0.24917888810266298  1.0000
  C   C59       1.0  0.7985007219289232  0.5481149752852056  0.2508211119463306  1.0000
  C   C60       1.0  0.7985007214749499  0.9518850251926548  0.7508211119150464  1.0000
  C   C61       1.0  0.14197011297381268  0.383706446090667  0.7138418897885306  1.0000
  C   C62       1.0  0.14197011343690594  0.11629355379035018  0.2138418894860789  1.0000
  C   C63       1.0  0.858029886522823  0.6162935545061763  0.2861581102291788  1.0000
  C   C64       1.0  0.8580298874547353  0.8837064459716844  0.7861581101961226  1.0000
  C   C65       1.0  0.07546152557574931  0.27507803482174836  0.7250600933597191  1.0000
  C   C66       1.0  0.07546152602972254  0.22492196505926887  0.22506009339100333  1.0000
  C   C67       1.0  0.9245384739208862  0.724921964940286  0.2749399066579903  1.0000
  C   C68       1.0  0.9245384734669131  0.7750780347027656  0.774939906626706  1.0000
  C   C69       1.0  0.008070124446460627  0.20345552669300662  0.6907283628386612  1.0000
  C   C70       1.0  0.008070124900433857  0.2965444731880106  0.19072836286994538  1.0000
  C   C71       1.0  0.991929875050175  0.7965444730690278  0.3092716371790482  1.0000
  C   C72       1.0  0.9919298759820874  0.7034555265740239  0.809271637145992  1.0000
  C   C73       1.0  0.012297209535667921  0.23512035683660049  0.6470079629025964  1.0000
  C   C74       1.0  0.012297208603755522  0.26487964304441675  0.1470079629356526  1.0000
  C   C75       1.0  0.9877027913468532  0.764879642925434  0.352992037113341  1.0000
  C   C76       1.0  0.98770279089288  0.7351203575524267  0.8529920370820568  1.0000
  C   C77       1.0  0.08284788332582577  0.34225209936814244  0.6345360919078409  1.0000
  C   C78       1.0  0.08284788377979901  0.1577479005128748  0.13453609193912514  1.0000
  C   C79       1.0  0.9171521161708099  0.657747900393892  0.3654639081098684  1.0000
  C   C80       1.0  0.9171521157168366  0.8422521000839684  0.8654639080785842  1.0000
  C   C81       1.0  0.14619770041073293  0.4182753359079927  0.6675849021871305  1.0000
  C   C82       1.0  0.14619769947882055  0.08172466397302453  0.16758490222018674  1.0000
  C   C83       1.0  0.8538023004717884  0.5817246638540418  0.33241509782880685  1.0000
  C   C84       1.0  0.8538023000178151  0.9182753357890099  0.8324150977975225  1.0000
  C   C85       1.0  0.21049302420464444  0.5234012280426021  0.6529495483853354  1.0000
  C   C86       1.0  0.2104930246586177  0.9765987716004496  0.15294954841661956  1.0000
  C   C87       1.0  0.7895069752919912  0.47659877171943227  0.3470504516323741  1.0000
  C   C88       1.0  0.7895069748380179  0.023401228161584887  0.8470504516010899  1.0000
  C   C89       1.0  0.2099166876521434  0.5487877302318086  0.607903220757181  1.0000
  C   C90       1.0  0.20991668810611663  0.9512122702460518  0.10790322078846519  1.0000
  C   C91       1.0  0.7900833118444921  0.4512122703650347  0.3920967792605284  1.0000
  C   C92       1.0  0.7900833113905189  0.04878773035079144  0.8920967792292441  1.0000
  C   C93       1.0  0.14317659410863942  0.4696286501670908  0.5775096544469933  1.0000
  C   C94       1.0  0.143176593176727  0.030371349713926382  0.07750965448004953  1.0000
  C   C95       1.0  0.8568234067738818  0.5303713495949436  0.4224903455689441  1.0000
  C   C96       1.0  0.8568234063199085  0.9696286508829168  0.9224903455376599  1.0000
  C   C97       1.0  0.6768849449675844  0.3464196180745457  0.8429852915331989  1.0000
  C   C98       1.0  0.6768849454215579  0.15358038180647152  0.34298529156448315  1.0000
  C   C99       1.0  0.3231150545290511  0.6535803816874888  0.15701470848451043  1.0000
  C   C100      1.0  0.32311505546096353  0.8464196187903719  0.6570147084514543  1.0000
  C   C101      1.0  0.7382363225262454  0.45176799011530666  0.8282283199213192  1.0000
  C   C102      1.0  0.738236321594333  0.04823200976571057  0.3282283199543753  1.0000
  C   C103      1.0  0.2617636783562759  0.5482320096467278  0.17177168009461827  1.0000
  C   C104      1.0  0.26176367790230265  0.9517679908311327  0.6717716800633341  1.0000
  C   C105      1.0  0.7355737516258851  0.4752021648442083  0.7830685169919915  1.0000
  C   C106      1.0  0.7355737520798583  0.024797835036808952  0.2830685170232757  1.0000
  C   C107      1.0  0.26442624787075053  0.5247978349178262  0.2169314830257179  1.0000
  C   C108      1.0  0.26442624880266297  0.9752021647252255  0.7169314829926616  1.0000
  C   C109      1.0  0.6696486891532437  0.3944244078892757  0.7530555222448159  1.0000
  C   C110      1.0  0.6696486896072169  0.10557559199174156  0.25305552227609995  1.0000
  C   C111      1.0  0.3303513103525119  0.6055755918727588  0.24694447743915773  1.0000
  C   C112      1.0  0.33035130988941874  0.8944244077702929  0.7469444777416094  1.0000
  C   C113      1.0  0.6092115829171579  0.29083054115260054  0.7714891406030816  1.0000
  C   C114      1.0  0.6092115819943656  0.20916945872841666  0.27148914030240195  1.0000
  C   C115      1.0  0.39078841796536323  0.7091694586094338  0.22851085941285576  1.0000
  C   C116      1.0  0.39078841751139  0.7908305410336177  0.7285108593815716  1.0000
  C   C117      1.0  0.5391171468144453  0.20634730465847403  0.7425963682014102  1.0000
  C   C118      1.0  0.539117145882533  0.29365269522254317  0.2425963682344664  1.0000
  C   C119      1.0  0.4608828540680759  0.7936526951035604  0.2574036318145272  1.0000
  C   C120      1.0  0.46088285361410264  0.7063473053743002  0.757403631783243  1.0000
  C   C121      1.0  0.5300426283684228  0.22199484796423036  0.6976227435343607  1.0000
  C   C122      1.0  0.530042628822396  0.2780051519167868  0.197622743565645  1.0000
  C   C123      1.0  0.46995737112821295  0.778005151797804  0.30237725648334857  1.0000
  C   C124      1.0  0.4699573706742397  0.7219948478452477  0.8023772564520643  1.0000
  C   C125      1.0  0.5907193212333743  0.32457566911436897  0.6779917287342002  1.0000
  C   C126      1.0  0.5907193216873476  0.17542433160145715  0.17799172876548444  1.0000
  C   C127      1.0  0.40928067826326126  0.6754243314824744  0.3220082712835092  1.0000
  C   C128      1.0  0.4092806791951737  0.8245756689953861  0.822008271250453  1.0000
  C   C129      1.0  0.6603960315732745  0.4118130745127476  0.7053376451530672  1.0000
  C   C130      1.0  0.6603960320272478  0.08818692536826961  0.20533764518435152  1.0000
  C   C131      1.0  0.33960396792336095  0.5881869252492868  0.2946623548646421  1.0000
  C   C132      1.0  0.33960396885527333  0.9118130743937648  0.794662354831586  1.0000
  C   C133      1.0  0.7176012127509722  0.5111295291366695  0.6839608559603731  1.0000
  C   C134      1.0  0.7176012118190598  0.9888704705063822  0.18396085599342923  1.0000
  C   C135      1.0  0.2823987881315491  0.488870470625365  0.3160391440555644  1.0000
  C   C136      1.0  0.28239878767757587  0.011129529255652264  0.8160391440242801  1.0000
  C   C137      1.0  0.7017041022416329  0.5212161433440057  0.6382026165869952  1.0000
  C   C138      1.0  0.7017041026956062  0.978783856299046  0.13820261661827932  1.0000
  C   C139      1.0  0.2982958972550027  0.4787838564180288  0.3617973834307143  1.0000
  C   C140      1.0  0.2982958981869151  0.021216143462988443  0.8617973833976581  1.0000
  C   C141      1.0  0.6342674396174822  0.43053762317859545  0.6136574325363001  1.0000
  C   C142      1.0  0.6342674400714554  0.06946237670242177  0.11365743256758429  1.0000
  C   C143      1.0  0.36573255987915354  0.569462376583439  0.38634256748140927  1.0000
  C   C144      1.0  0.36573255942518024  0.9305376230596126  0.8863425674501252  1.0000
  N   N1        1.0  0.07287677158193578  0.23537488672533002  0.7676780806970456  1.0000
  N   N2        1.0  0.07287677203590902  0.26462511315568715  0.2676780807283297  1.0000
  N   N3        1.0  0.9271232279146999  0.7646251138715133  0.23232191932066387  1.0000
  N   N4        1.0  0.9271232274607266  0.7353748866063473  0.7323219192893796  1.0000
  N   N5        1.0  0.0825575509700223  0.3699219015208522  0.5904858450419783  1.0000
  N   N6        1.0  0.0825575500381099  0.13007809836016498  0.09048584507503457  1.0000
  N   N7        1.0  0.917442449912499  0.6300780982411822  0.40951415497395904  1.0000
  N   N8        1.0  0.9174424494585257  0.8699219014018694  0.9095141549426748  1.0000
  N   N9        1.0  0.6142382037377866  0.26763543565194337  0.81586785760501  1.0000
  N   N10       1.0  0.6142382041917598  0.23236456422907384  0.31586785763629416  1.0000
  N   N11       1.0  0.3857617957588491  0.7323645641100911  0.18413214241269946  1.0000
  N   N12       1.0  0.3857617966907615  0.7676354355329607  0.6841321423796433  1.0000
  N   N13       1.0  0.5811324221605441  0.3355449910323841  0.6328828229646684  1.0000
  N   N14       1.0  0.5811324226236374  0.1644550088486331  0.13288282266221663  1.0000
  N   N15       1.0  0.4188675773360915  0.6644550087296502  0.3671171770530411  1.0000
  N   N16       1.0  0.41886757688211823  0.8355449909134013  0.8671171770217568  1.0000
  O   O1        1.0  0.21441691239219007  0.6243522250995314  0.49282259672584533  1.0000
  O   O2        1.0  0.21441691193821685  0.8756477753783292  0.9928225966945611  1.0000
  O   O3        1.0  0.7855830884903313  0.3756477754973119  0.5071774032900921  1.0000
  O   O4        1.0  0.7855830875584188  0.12435222438370531  0.007177403323148302  1.0000
  O   O5        1.0  0.07647613209699729  0.7724314651500571  0.4603460622419101  1.0000
  O   O6        1.0  0.0764761330289097  0.7275685353278034  0.960346062208854  1.0000
  O   O7        1.0  0.9235238673996383  0.22756853544678626  0.5396539377757992  1.0000
  O   O8        1.0  0.9235238678536116  0.27243146443423094  0.03965393780708346  1.0000
  O   O9        1.0  0.6789707779283933  0.06364756636177299  0.6191145271220849  1.0000
  O   O10       1.0  0.6789707783914866  0.43635243351924424  0.11911452681963319  1.0000
  O   O11       1.0  0.3210292215682423  0.9363524342350703  0.3808854728956246  1.0000
  O   O12       1.0  0.32102922111426907  0.5636475662427902  0.8808854728643404  1.0000
  O   O13       1.0  0.47626410356000226  0.17331924329873796  0.5824104258589134  1.0000
  O   O14       1.0  0.4762641040139755  0.32668075658227924  0.08241042589019762  1.0000
  O   O15       1.0  0.5237358959457533  0.8266807564632965  0.41758957382506007  1.0000
  O   O16       1.0  0.5237358954826601  0.6733192431797552  0.9175895741275119  1.0000
