data_image0
_chemical_formula_structural       H70C80N6O10
_chemical_formula_sum              "H70 C80 N6 O10"
_cell_length_a       9.72106723893292
_cell_length_b       11.004680254667257
_cell_length_c       15.751785604259863
_cell_angle_alpha    74.22159434459313
_cell_angle_beta     84.0405716747654
_cell_angle_gamma    76.27912185566807

_space_group_name_H-M_alt    "P 1"
_space_group_IT_number       1

loop_
  _space_group_symop_operation_xyz
  'x, y, z'

loop_
  _atom_site_type_symbol
  _atom_site_label
  _atom_site_symmetry_multiplicity
  _atom_site_fract_x
  _atom_site_fract_y
  _atom_site_fract_z
  _atom_site_occupancy
  H   H1        1.0  0.025052500802885885  0.7436499386694818  0.42715935147486295  1.0000
  H   H2        1.0  0.9749474991558309  0.25635006094506374  0.5728406489825378  1.0000
  H   H3        1.0  0.7931969660482611  0.8134198250841378  0.5005711520965614  1.0000
  H   H4        1.0  0.20680303395747066  0.1865801747680902  0.49942884770058626  1.0000
  H   H5        1.0  0.24637430127292523  0.38240644524576334  0.3536786865370807  1.0000
  H   H6        1.0  0.7536256987328067  0.6175935546064645  0.646321313260067  1.0000
  H   H7        1.0  0.5861087095931381  0.5408729778291534  0.5561420656674476  1.0000
  H   H8        1.0  0.4138912903655788  0.4591270217853921  0.4438579347899531  1.0000
  H   H9        1.0  0.8095237115148581  0.46499157940059493  0.47890123843582155  1.0000
  H   H10       1.0  0.19047628849087367  0.535008420451633  0.5210987613613262  1.0000
  H   H11       1.0  0.03642870935356596  0.46850971312717576  0.4380923164393333  1.0000
  H   H12       1.0  0.9635712903503633  0.5314902874253431  0.5619076840110397  1.0000
  H   H13       1.0  0.8395864512307873  0.6957773704758393  0.1956841077646568  1.0000
  H   H14       1.0  0.16041354877494432  0.3042226293763884  0.804315892032491  1.0000
  H   H15       1.0  0.359365001444968  0.936152192550888  0.704557719451286  1.0000
  H   H16       1.0  0.6406349985607639  0.06384780730133985  0.2954422803458618  1.0000
  H   H17       1.0  0.524099935270178  0.29162641138642664  0.12717503117111223  1.0000
  H   H18       1.0  0.47590006468853885  0.708373588228119  0.8728249692862886  1.0000
  H   H19       1.0  0.05013114402654316  0.6091014814001608  0.1108600539008155  1.0000
  H   H20       1.0  0.9498688559791887  0.390898518452067  0.8891399458963322  1.0000
  H   H21       1.0  0.515918088961958  0.9024336725740604  0.3571058332389705  1.0000
  H   H22       1.0  0.4840819110437738  0.09756632727816744  0.6428941665581772  1.0000
  H   H23       1.0  0.12436901957184043  0.011893239093521484  0.7800750256761937  1.0000
  H   H24       1.0  0.8756309803868765  0.988106760521024  0.2199249747812071  1.0000
  H   H25       1.0  0.9074785030288279  0.98344478408086  0.7322177846767769  1.0000
  H   H26       1.0  0.09252149692988886  0.01655521553368571  0.2677822157806239  1.0000
  H   H27       1.0  0.7439694575585389  0.8272511327251736  0.2799777696252743  1.0000
  H   H28       1.0  0.2560305421453905  0.1727488678273451  0.7200222308250988  1.0000
  H   H29       1.0  0.37561513855601797  0.478245343248851  0.005548544592413914  1.0000
  H   H30       1.0  0.624384861402699  0.5217546563656944  0.9944514558649868  1.0000
  H   H31       1.0  0.8049646931172202  0.4235931476736341  0.25885333461208426  1.0000
  H   H32       1.0  0.1950353068414967  0.5764068519409112  0.7411466658453166  1.0000
  H   H33       1.0  0.35615550327925044  0.5833280381259928  0.269412657636233  1.0000
  H   H34       1.0  0.6438444967264813  0.4166719617262351  0.7305873421609148  1.0000
  H   H35       1.0  0.7650064809553517  0.2878268971550877  0.16445774189303725  1.0000
  H   H36       1.0  0.23499352007807445  0.7121731027009461  0.8355422579039273  1.0000
  H   H37       1.0  0.12110916461297529  0.27042321363781757  0.20719621134870003  1.0000
  H   H38       1.0  0.8788908353927566  0.7295767862144104  0.7928037884484477  1.0000
  H   H39       1.0  0.5950647664016062  0.5716272737845406  0.3111153678566296  1.0000
  H   H40       1.0  0.404935233302323  0.42837272676797844  0.6888846325937433  1.0000
  H   H41       1.0  0.17804734394377444  0.19818090620773746  0.9491441837348464  1.0000
  H   H42       1.0  0.8219526557601549  0.8018190943447815  0.050855816715526705  1.0000
  H   H43       1.0  0.3262810252613305  0.36529880531052705  0.9002214083493192  1.0000
  H   H44       1.0  0.6737189747444013  0.6347011945417008  0.09977859144782854  1.0000
  H   H45       1.0  0.07463290418479802  0.1533298842615392  0.10247245243733503  1.0000
  H   H46       1.0  0.9253670965938406  0.8466701165324678  0.8975275473526019  1.0000
  H   H47       1.0  0.6647737798448967  0.8955236574456904  0.6174566528712587  1.0000
  H   H48       1.0  0.3352262201138202  0.10447634216885493  0.38254334758614217  1.0000
  H   H49       1.0  0.7425826772424176  0.9585055849457762  0.686358145877729  1.0000
  H   H50       1.0  0.2574173227162993  0.04149441466876931  0.3136418545796717  1.0000
  H   H51       1.0  0.45629215856257666  0.7901296017097535  0.1699571262736827  1.0000
  H   H52       1.0  0.5437078414431552  0.20987039814247418  0.8300428735234651  1.0000
  H   H53       1.0  0.5700825824877296  0.9719410512885523  0.07958766116857491  1.0000
  H   H54       1.0  0.42991741751800217  0.028058948563675568  0.9204123386285726  1.0000
  H   H55       1.0  0.5507631731122119  0.9741639326257647  0.19340700400134603  1.0000
  H   H56       1.0  0.4492368266387324  0.02583606816443644  0.806592995788774  1.0000
  H   H57       1.0  0.42991287979401477  0.08659531043711582  0.11532739118756001  1.0000
  H   H58       1.0  0.5700871201647021  0.9134046891774296  0.8846726092698408  1.0000
  H   H59       1.0  0.2395603282558335  0.7476270244104325  0.11808887193107324  1.0000
  H   H60       1.0  0.7604396717498983  0.2523729754417954  0.8819111278660745  1.0000
  H   H61       1.0  0.3901865335025949  0.7357485698004188  0.042982703681989524  1.0000
  H   H62       1.0  0.6098134665031368  0.2642514300518091  0.9570172961151582  1.0000
  H   H63       1.0  0.24401444296431402  0.8956828552205696  0.9216414405800252  1.0000
  H   H64       1.0  0.7559855570414178  0.10431714463165832  0.07835855921712252  1.0000
  H   H65       1.0  0.0949437250055227  0.9104722395614105  0.9970236887764772  1.0000
  H   H66       1.0  0.9050562747454216  0.0895277612287906  0.002976311013642684  1.0000
  H   H67       1.0  0.1642198103781138  0.7613438778565169  0.9687820696539594  1.0000
  H   H68       1.0  0.8357801893258155  0.23865612269600203  0.03121793079641361  1.0000
  H   H69       1.0  0.24794843935356284  0.7754748780776132  0.31015860321717253  1.0000
  H   H70       1.0  0.7520515606521688  0.22452512177461484  0.6898413965799751  1.0000
  C   C1        1.0  0.2656905217811449  0.8725137619939279  0.6128734965428362  1.0000
  C   C2        1.0  0.7343094782245871  0.1274862378582999  0.3871265032543115  1.0000
  C   C3        1.0  0.008182588421895403  0.895880467342017  0.6266981443945719  1.0000
  C   C4        1.0  0.9918174115838365  0.10411953251021083  0.37330185540257577  1.0000
  C   C5        1.0  0.1465398421547243  0.7985670075886999  0.5117612449301899  1.0000
  C   C6        1.0  0.8534601588787019  0.2014329922673339  0.4882387548667746  1.0000
  C   C7        1.0  0.14049529005258737  0.8553028019805717  0.5831894865811434  1.0000
  C   C8        1.0  0.8595047099531444  0.1446971978716562  0.4168105132160042  1.0000
  C   C9        1.0  0.5377882069678174  0.7264733446522329  0.46067599018050653  1.0000
  C   C10       1.0  0.46221179299089954  0.2735266549623126  0.5393240102768943  1.0000
  C   C11       1.0  0.9229504072736195  0.5919671813320452  0.32359373021175813  1.0000
  C   C12       1.0  0.07704959268509741  0.40803281828250026  0.6764062702456427  1.0000
  C   C13       1.0  0.28125927516645916  0.7543209001574259  0.4701929427287368  1.0000
  C   C14       1.0  0.7187407248392728  0.24567909969480198  0.5298070570684109  1.0000
  C   C15       1.0  0.8800130678813407  0.8799485233613799  0.596092230675408  1.0000
  C   C16       1.0  0.11998693186960348  0.12005147742882147  0.40390776911471205  1.0000
  C   C17       1.0  0.40361286274965535  0.8288558443269725  0.5712794956151884  1.0000
  C   C18       1.0  0.5963871370012889  0.17114415646322895  0.42872050417493157  1.0000
  C   C19       1.0  0.7939867409849366  0.6404482592588548  0.37323219401095653  1.0000
  C   C20       1.0  0.20601325897378028  0.35955174035569076  0.6267678064464444  1.0000
  C   C21       1.0  0.01970939364690696  0.7853565831393217  0.48315357639404677  1.0000
  C   C22       1.0  0.98029060631181  0.21464341647522384  0.516846424063354  1.0000
  C   C23       1.0  0.8900546987043622  0.8245508572651998  0.5239227346329937  1.0000
  C   C24       1.0  0.10994530130136985  0.1754491425870281  0.47607726516415394  1.0000
  C   C25       1.0  0.157877255816633  0.4525431547275305  0.3190736030256419  1.0000
  C   C26       1.0  0.8421227441890989  0.5474568451246974  0.6809263967715058  1.0000
  C   C27       1.0  0.6210688602764096  0.6043540001447875  0.4960112650527354  1.0000
  C   C28       1.0  0.3789311394275196  0.3956460004077314  0.5039887353976378  1.0000
  C   C29       1.0  0.16367951556827529  0.4919827871492391  0.2266684801927317  1.0000
  C   C30       1.0  0.8363204844374563  0.508017212702989  0.7733315196044159  1.0000
  C   C31       1.0  0.7482425672103294  0.5623343546153685  0.45238646229314505  1.0000
  C   C32       1.0  0.2517574327954024  0.43766564523685936  0.5476135375040028  1.0000
  C   C33       1.0  0.25381870074050317  0.3793208056871819  0.11370333393096435  1.0000
  C   C34       1.0  0.7461812992182137  0.6206791939273636  0.8862966665264366  1.0000
  C   C35       1.0  0.039069517769002256  0.5020371745136012  0.36637404009906593  1.0000
  C   C36       1.0  0.9609304822367296  0.4979628253386266  0.6336259596980819  1.0000
  C   C37       1.0  0.4210171720625578  0.43692607607490913  0.1963236757046767  1.0000
  C   C38       1.0  0.5789828278961591  0.5630739235396364  0.8036763247527241  1.0000
  C   C39       1.0  0.9302859193152159  0.6300635255270973  0.2307807088904234  1.0000
  C   C40       1.0  0.06971408069051584  0.3699364743251306  0.7692192909067243  1.0000
  C   C41       1.0  0.25988261592895723  0.9281353455425652  0.6829184400773936  1.0000
  C   C42       1.0  0.740117383821987  0.07186465524763591  0.31708155971272645  1.0000
  C   C43       1.0  0.5391540499889381  0.3542633687178717  0.16676666096821255  1.0000
  C   C44       1.0  0.4608459500167937  0.6457366311343561  0.8332333388289352  1.0000
  C   C45       1.0  0.04814932640603352  0.5807885371108333  0.18279287066212596  1.0000
  C   C46       1.0  0.9518506735996982  0.4192114627413945  0.8172071291350218  1.0000
  C   C47       1.0  0.5819244146407424  0.8069272058916086  0.38318133131626075  1.0000
  C   C48       1.0  0.4180755853649894  0.19307279396061927  0.6168186684808868  1.0000
  C   C49       1.0  0.12994636671908535  0.968088503346797  0.7251941473787538  1.0000
  C   C50       1.0  0.8700536332866464  0.0319114965054308  0.27480585241839395  1.0000
  C   C51       1.0  0.006385330783763753  0.9510805558789662  0.6977529897634673  1.0000
  C   C52       1.0  0.9936146689671803  0.048919444911234976  0.3022470100266526  1.0000
  C   C53       1.0  0.7090193062498481  0.7640428182884363  0.34012353804726975  1.0000
  C   C54       1.0  0.2909806937088687  0.2359571813261093  0.659876462410131  1.0000
  C   C55       1.0  0.31066158492307944  0.40620262918310557  0.02690093578250595  1.0000
  C   C56       1.0  0.6893384150826524  0.5937973706691223  0.9730990640146417  1.0000
  C   C57       1.0  0.6982621113274574  0.4277393715575702  0.2413230007523905  1.0000
  C   C58       1.0  0.30173788867827445  0.5722606282946577  0.7586769990447572  1.0000
  C   C59       1.0  0.4449296303590415  0.5164641895348653  0.24734659728138808  1.0000
  C   C60       1.0  0.5550703693448878  0.4835358110176537  0.7526534031689849  1.0000
  C   C61       1.0  0.6753632923717113  0.35195156671990246  0.18833191787201334  1.0000
  C   C62       1.0  0.32463670763402047  0.6480484331323254  0.8116680819251344  1.0000
  C   C63       1.0  0.16613479299534503  0.2898944390090319  0.13980701966449624  1.0000
  C   C64       1.0  0.8338652070103867  0.710105560843196  0.8601929801326516  1.0000
  C   C65       1.0  0.5812536356762298  0.5100367044383319  0.270447311813226  1.0000
  C   C66       1.0  0.418746364329502  0.48996329541389605  0.7295526879839217  1.0000
  C   C67       1.0  0.19771933840560654  0.2508017620890128  0.9944962758599591  1.0000
  C   C68       1.0  0.8022806616001253  0.749198237763215  0.005503723937188658  1.0000
  C   C69       1.0  0.2827085842718265  0.341812408182513  0.9677697232978327  1.0000
  C   C70       1.0  0.7172914154791178  0.6581875926076881  0.032230276492287206  1.0000
  C   C71       1.0  0.13878218047058116  0.22583653461581535  0.08056105807038456  1.0000
  C   C72       1.0  0.861217819280363  0.7741634661743858  0.9194389417197354  1.0000
  C   C73       1.0  0.3979684278211767  0.8918592500879785  0.15032294277487193  1.0000
  C   C74       1.0  0.6020315721375401  0.10814074952656708  0.849677057682529  1.0000
  C   C75       1.0  0.49358039911808477  0.9873070570933866  0.13397722587504024  1.0000
  C   C76       1.0  0.5064196019153414  0.012692942762646998  0.8660227739219243  1.0000
  C   C77       1.0  0.29047869716413927  0.8002848953926205  0.058433911870699164  1.0000
  C   C78       1.0  0.7095213028415925  0.19971510445960725  0.9415660879264486  1.0000
  C   C79       1.0  0.19298731400036387  0.8448511777144919  0.9818988871175668  1.0000
  C   C80       1.0  0.8070126870330624  0.15514882214154185  0.018101112679397794  1.0000
  N   N1        1.0  0.4033455841383435  0.7699836194250465  0.5032313075645273  1.0000
  N   N2        1.0  0.5966544156126008  0.2300163813651547  0.4967686922255927  1.0000
  N   N3        1.0  0.2822567004860151  0.44141030707762785  0.1761851615161018  1.0000
  N   N4        1.0  0.7177432995197167  0.5585896927746001  0.823814838281046  1.0000
  N   N5        1.0  0.752808862697903  0.9175974336251849  0.6347993065483573  1.0000
  N   N6        1.0  0.2471911370060262  0.08240256692733411  0.3652006939020158  1.0000
  O   O1        1.0  0.2980551532620653  0.7007281041118327  0.4078883950661276  1.0000
  O   O2        1.0  0.7019448467436664  0.2992718957403952  0.59211160473102  1.0000
  O   O3        1.0  0.5175151429656235  0.8413721660991214  0.5932956599072434  1.0000
  O   O4        1.0  0.48248485704010835  0.15862783375310655  0.4067043398899044  1.0000
  O   O5        1.0  0.32275887338167303  0.9138132272624795  0.07396946493855125  1.0000
  O   O6        1.0  0.6772411265770438  0.08618677235206601  0.9260305355188496  1.0000
  O   O7        1.0  0.2159996406396317  0.8221000672449175  0.2485656839963678  1.0000
  O   O8        1.0  0.7840003603937945  0.17789993261111625  0.7514343158005966  1.0000
  O   O9        1.0  0.3055759802612639  0.9180631851153855  0.22370579142117922  1.0000
  O   O10       1.0  0.694424019744468  0.08193681473684233  0.7762942083759685  1.0000
