data_image0
_chemical_formula_structural       H76C74N24O10
_chemical_formula_sum              "H76 C74 N24 O10"
_cell_length_a       11.922338878862464
_cell_length_b       12.685670145151798
_cell_length_c       13.374250265758585
_cell_angle_alpha    75.0400500386848
_cell_angle_beta     66.21904553282576
_cell_angle_gamma    75.89757364376027

_space_group_name_H-M_alt    "P 1"
_space_group_IT_number       1

loop_
  _space_group_symop_operation_xyz
  'x, y, z'

loop_
  _atom_site_type_symbol
  _atom_site_label
  _atom_site_symmetry_multiplicity
  _atom_site_fract_x
  _atom_site_fract_y
  _atom_site_fract_z
  _atom_site_occupancy
  H   H1        1.0  0.33230240364834807  0.4664681342884329  0.818236739253563  1.0000
  H   H2        1.0  0.6676975962470972  0.5335318659973634  0.1817632599969128  1.0000
  H   H3        1.0  0.4378741922562806  0.4948658430021637  0.8665354834553818  1.0000
  H   H4        1.0  0.5621258083521897  0.505134156321829  0.13346451662512435  1.0000
  H   H5        1.0  0.31873963639657543  0.415418810906058  0.9594675298399987  1.0000
  H   H6        1.0  0.6812603631623588  0.5845811892308732  0.040532470241149185  1.0000
  H   H7        1.0  0.7138997875112313  0.06698021709826266  0.6735141628193202  1.0000
  H   H8        1.0  0.2861002120477029  0.9330197830386683  0.3264858372618277  1.0000
  H   H9        1.0  0.7474981834960753  0.19549363301414135  0.5942485119621588  1.0000
  H   H10       1.0  0.25250181606285893  0.8045063671227897  0.405751488118989  1.0000
  H   H11       1.0  0.7017012681964409  0.8506272999148242  0.31099917089755885  1.0000
  H   H12       1.0  0.29829873136249346  0.1493727002221067  0.6890008291835891  1.0000
  H   H13       1.0  0.539810126698564  0.847520695347842  0.3606258717704419  1.0000
  H   H14       1.0  0.4601898736994609  0.15247930478893754  0.6393741283100646  1.0000
  H   H15       1.0  0.6424818453127207  0.8058411005027032  0.2307043277733189  1.0000
  H   H16       1.0  0.35751815424621364  0.19415889963422778  0.7692956723078289  1.0000
  H   H17       1.0  0.8840333994274016  0.3655663833736239  0.3350349379794953  1.0000
  H   H18       1.0  0.11596660097062342  0.6344336167631557  0.6649650621010111  1.0000
  H   H19       1.0  0.01906549445047057  0.5120093042418802  0.1708885604361042  1.0000
  H   H20       1.0  0.9809345054449745  0.48799069604391604  0.8291114388143718  1.0000
  H   H21       1.0  0.88047005068284  0.5454111255131043  0.143539419188681  1.0000
  H   H22       1.0  0.11952994971518502  0.4545888746236751  0.8564605808918255  1.0000
  H   H23       1.0  0.1661902783795759  0.3538081646817105  0.12134130000967928  1.0000
  H   H24       1.0  0.8338097211793583  0.6461918354552204  0.8786587000714686  1.0000
  H   H25       1.0  0.24121122135503575  0.1966267406574506  0.019706271437987186  1.0000
  H   H26       1.0  0.7587887792534346  0.8033732586665419  0.980293728642519  1.0000
  H   H27       1.0  0.09654180572507985  0.1324140972899212  0.964973901596401  1.0000
  H   H28       1.0  0.9034581948833903  0.8675859020340714  0.035026098484105185  1.0000
  H   H29       1.0  0.8750550764481595  0.22686633456497915  0.012753250132802775  1.0000
  H   H30       1.0  0.12494492332122015  0.7731336647591649  0.9872467499483447  1.0000
  H   H31       1.0  0.8038273806364062  0.3856036400667758  0.10887597891575931  1.0000
  H   H32       1.0  0.19617261892252805  0.6143963600701554  0.8911240211653884  1.0000
  H   H33       1.0  0.9478273180183132  0.004285425878792456  0.8636276250825602  1.0000
  H   H34       1.0  0.05217268154062103  0.9957145742581386  0.13637237499858768  1.0000
  H   H35       1.0  0.9886655935010372  0.10147665044395057  0.7386330701927725  1.0000
  H   H36       1.0  0.011334406268342258  0.8985233488801935  0.26136692988837507  1.0000
  H   H37       1.0  0.04218545507870767  0.1029401672901331  0.845277382018506  1.0000
  H   H38       1.0  0.9578145444802265  0.897059832846798  0.15472261806264181  1.0000
  H   H39       1.0  0.4293021580161438  0.738618524935378  0.5726971935098357  1.0000
  H   H40       1.0  0.5706978415427904  0.26138147520155314  0.4273028065713121  1.0000
  H   H41       1.0  0.28779177031356784  0.7412371774722935  0.5614449606439378  1.0000
  H   H42       1.0  0.7122082292453664  0.2587628226646376  0.4385550394372102  1.0000
  H   H43       1.0  0.5879331604149801  0.8468505008000723  0.5592137462286391  1.0000
  H   H44       1.0  0.4120668391439541  0.1531494993368587  0.44078625385250886  1.0000
  H   H45       1.0  0.641035376342179  0.9535985795597829  0.4470394042511247  1.0000
  H   H46       1.0  0.3589646232167552  0.046401420577148196  0.5529605958300231  1.0000
  H   H47       1.0  0.5760996645617502  0.9810177441660837  0.5855739618824611  1.0000
  H   H48       1.0  0.42390033520762926  0.0189822551580603  0.4144260381986865  1.0000
  H   H49       1.0  0.1203271504736988  0.6767246780625319  0.4284296965566401  1.0000
  H   H50       1.0  0.8796728501347714  0.32327532126146064  0.5715703035238661  1.0000
  H   H51       1.0  0.9675308021935128  0.7137851121804283  0.29488537793405206  1.0000
  H   H52       1.0  0.03246919820451217  0.28621488795635125  0.7051146221464543  1.0000
  H   H53       1.0  0.9297787115183096  0.6013965968469853  0.4045398684507424  1.0000
  H   H54       1.0  0.07022128804062477  0.39860340328994565  0.5954601316304055  1.0000
  H   H55       1.0  0.08180453743602469  0.4332246068300734  0.41746586256362245  1.0000
  H   H56       1.0  0.9181954621229095  0.5667753933068576  0.5825341375175254  1.0000
  H   H57       1.0  0.2724318095093311  0.31359952219231274  0.31946041676574904  1.0000
  H   H58       1.0  0.7275681900496033  0.6864004779446183  0.6805395833153988  1.0000
  H   H59       1.0  0.4165373041686981  0.38833611059134526  0.13204263079446213  1.0000
  H   H60       1.0  0.5834626962293269  0.6116638895454344  0.8679573692860444  1.0000
  H   H61       1.0  0.36775692067026683  0.5870512477864384  0.046467151907179795  1.0000
  H   H62       1.0  0.6322430788886675  0.4129487523504927  0.953532848173968  1.0000
  H   H63       1.0  0.18177225127616567  0.7051881348089176  0.145620526751063  1.0000
  H   H64       1.0  0.8182277484932138  0.29481186451522634  0.8543794733300847  1.0000
  H   H65       1.0  0.5869325814844376  0.8694298241879548  0.8757081037129619  1.0000
  H   H66       1.0  0.41306741807449665  0.13057017594897616  0.12429189636818593  1.0000
  H   H67       1.0  0.5144330912691097  0.9527057104312088  0.7832222429246918  1.0000
  H   H68       1.0  0.48556690850026973  0.04729428889293536  0.21677775715645584  1.0000
  H   H69       1.0  0.5531339696360659  0.8057370596859771  0.78820681467259  1.0000
  H   H70       1.0  0.4468660299228682  0.19426294045095402  0.21179318540855785  1.0000
  H   H71       1.0  0.28458559979505305  0.012983296674671142  0.9263434518368837  1.0000
  H   H72       1.0  0.7154143997638813  0.9870167034622599  0.07365654824426413  1.0000
  H   H73       1.0  0.3877288161434033  0.9972335794810924  0.9964733877863736  1.0000
  H   H74       1.0  0.6122711842546216  0.002766420655687118  0.003526612294132895  1.0000
  H   H75       1.0  0.2525690487814134  0.929807915864787  0.06245314134281432  1.0000
  H   H76       1.0  0.7474309519531227  0.0701920844208577  0.9375468579070201  1.0000
  C   C1        1.0  0.6121946444515768  0.399097158950861  0.6392706797572424  1.0000
  C   C2        1.0  0.3878053551073575  0.60090284118607  0.3607293203239054  1.0000
  C   C3        1.0  0.6120045743724914  0.5577593242574183  0.5256542105153904  1.0000
  C   C4        1.0  0.3879954262359789  0.44224067506657433  0.4743457895651158  1.0000
  C   C5        1.0  0.6537659380963531  0.6887193699061238  0.374442111148423  1.0000
  C   C6        1.0  0.3462340628486282  0.311280629566734  0.6255578881014112  1.0000
  C   C7        1.0  0.7749555084389216  0.5141002268646472  0.35977391617281257  1.0000
  C   C8        1.0  0.22504449112001257  0.4858997732722839  0.6402260839083352  1.0000
  C   C9        1.0  0.7063736028031173  0.4795096807301739  0.47351387432452724  1.0000
  C   C10       1.0  0.29362639759490755  0.5204903194066055  0.5264861257559792  1.0000
  C   C11       1.0  0.46808349618801237  0.329504938146408  0.8397466488479449  1.0000
  C   C12       1.0  0.5319165042100126  0.6704950619903715  0.1602533512325614  1.0000
  C   C13       1.0  0.384316950054301  0.4321373890400196  0.8741034433456019  1.0000
  C   C14       1.0  0.6156830495046333  0.5678626110969115  0.12589655673554598  1.0000
  C   C15       1.0  0.5680653349294543  0.3201781277068344  0.7362565248116079  1.0000
  C   C16       1.0  0.4319346646294799  0.6798218724300965  0.26374347526953995  1.0000
  C   C17       1.0  0.6128175141528688  0.2067721551988727  0.743346110118839  1.0000
  C   C18       1.0  0.3871824854060653  0.7932278449380583  0.256653889962309  1.0000
  C   C19       1.0  0.6317689190484467  0.8047869020418699  0.31623815069262146  1.0000
  C   C20       1.0  0.3682310813495783  0.19521309809490955  0.683761849387885  1.0000
  C   C21       1.0  0.9381595559283311  0.47818209615812224  0.17976272626887618  1.0000
  C   C22       1.0  0.061840443630602926  0.5218179039788088  0.8202372738122717  1.0000
  C   C23       1.0  0.9807386139829711  0.3809875113100922  0.12090510215284352  1.0000
  C   C24       1.0  0.01926138557596324  0.6190124888268389  0.8790948979283042  1.0000
  C   C25       1.0  0.10301417151572105  0.32569913640916326  0.09677157391819333  1.0000
  C   C26       1.0  0.8969858280432131  0.6743008637277675  0.9032284261629546  1.0000
  C   C27       1.0  0.1446708680692325  0.23648197699529885  0.040860177611073106  1.0000
  C   C28       1.0  0.8553291314897016  0.7635180231416323  0.9591398224700747  1.0000
  C   C29       1.0  0.06334505693754876  0.2014680500467726  0.009493041909711392  1.0000
  C   C30       1.0  0.9366549429578965  0.7985319502390238  0.9905069573407644  1.0000
  C   C31       1.0  0.9403695849943892  0.2545732210055132  0.03484972011814734  1.0000
  C   C32       1.0  0.059630414564545105  0.7454267791314177  0.9651502799630004  1.0000
  C   C33       1.0  0.8996073532188633  0.3441014847931033  0.09006639243070845  1.0000
  C   C34       1.0  0.10039264634007096  0.6558985153438277  0.9099336076504393  1.0000
  C   C35       1.0  0.06652233065367605  0.8754595697987122  0.6440527696517484  1.0000
  C   C36       1.0  0.9334776697443491  0.12454043033806714  0.3559472304287579  1.0000
  C   C37       1.0  0.8972940569243681  0.8989656313217584  0.6090184732166939  1.0000
  C   C38       1.0  0.10270594284501135  0.1010343680023856  0.3909815268644537  1.0000
  C   C39       1.0  0.7598567729212015  0.8872621784291231  0.5403191328541614  1.0000
  C   C40       1.0  0.24014322684817804  0.11273782089502087  0.4596808672269862  1.0000
  C   C41       1.0  0.9541003556551605  0.7764839174794905  0.48312242438223474  1.0000
  C   C42       1.0  0.045899644953309816  0.22351608184450206  0.5168775756982714  1.0000
  C   C43       1.0  0.9863496888069807  0.8202465977233196  0.5531108083710387  1.0000
  C   C44       1.0  0.013650310751953477  0.17975340241361118  0.44688919171010916  1.0000
  C   C45       1.0  0.13501225736318653  0.9707911931707318  0.754631133497084  1.0000
  C   C46       1.0  0.8649877421957477  0.029208806966199135  0.24536886658406395  1.0000
  C   C47       1.0  0.022401248115334324  0.04986998322758199  0.8035449487814746  1.0000
  C   C48       1.0  0.9775987519905562  0.9501300162454274  0.19645505046900077  1.0000
  C   C49       1.0  0.1485200238128284  0.8951650269329365  0.6867004643710075  1.0000
  C   C50       1.0  0.8514799765851966  0.10483497320384307  0.3132995357094989  1.0000
  C   C51       1.0  0.27188276755197305  0.8417579517941842  0.6614865332994786  1.0000
  C   C52       1.0  0.7281172320069612  0.1582420483427467  0.33851346678166927  1.0000
  C   C53       1.0  0.6336631017681087  0.9199718159351238  0.5332354614400828  1.0000
  C   C54       1.0  0.36633689779082557  0.08002818420180725  0.46676453864106504  1.0000
  C   C55       1.0  0.004601748531600652  0.6501953572398916  0.3518507263061484  1.0000
  C   C56       1.0  0.9953982518664243  0.3498046428968879  0.6481492737743582  1.0000
  C   C57       1.0  0.11850505311576351  0.5774244804356768  0.2891193080908512  1.0000
  C   C58       1.0  0.8814949472822613  0.42257551970110274  0.7108806919896553  1.0000
  C   C59       1.0  0.14576398419383188  0.4667813018387024  0.33663954353481146  1.0000
  C   C60       1.0  0.8542360153651023  0.5332186982982287  0.6633604565463364  1.0000
  C   C61       1.0  0.2526107405386912  0.39920009283474067  0.28074334187834216  1.0000
  C   C62       1.0  0.7473892598593338  0.6007999073020388  0.7192566582021643  1.0000
  C   C63       1.0  0.33323716954266547  0.4414573833710577  0.17587168799658368  1.0000
  C   C64       1.0  0.6667628308553594  0.5585426167657218  0.8241283120839228  1.0000
  C   C65       1.0  0.30660876440312934  0.5516474858224194  0.12786929127126997  1.0000
  C   C66       1.0  0.693391235155805  0.4483525143145117  0.8721307088098779  1.0000
  C   C67       1.0  0.20018112550150402  0.6193212138326109  0.18445650070332686  1.0000
  C   C68       1.0  0.7998188740574304  0.3806787863043202  0.8155434993778209  1.0000
  C   C69       1.0  0.5202431765639302  0.8716268453239285  0.8371289058792062  1.0000
  C   C70       1.0  0.47975682383409474  0.12837315481285097  0.16287109420130025  1.0000
  C   C71       1.0  0.3965058059763549  0.8567098481809123  0.9281973418944387  1.0000
  C   C72       1.0  0.60349419442167  0.14329015195586728  0.07180265818606785  1.0000
  C   C73       1.0  0.3260710000632164  0.9547633425644024  0.9835882674613549  1.0000
  C   C74       1.0  0.6739290003348087  0.045236657572377076  0.01641173261915158  1.0000
  N   N1        1.0  0.7068375495510878  0.37954893562401576  0.5471819996927035  1.0000
  N   N2        1.0  0.2931624500078466  0.6204510645129152  0.4528180003884442  1.0000
  N   N3        1.0  0.5812174343439106  0.6624882652141176  0.48336376538839465  1.0000
  N   N4        1.0  0.4187825660541142  0.3375117349226618  0.5166362346921117  1.0000
  N   N5        1.0  0.7454049800953846  0.6201740293517355  0.31351902927240205  1.0000
  N   N6        1.0  0.25459501946354984  0.3798259707851955  0.6864809708087457  1.0000
  N   N7        1.0  0.4524147384431633  0.23262985233384964  0.9050888800784825  1.0000
  N   N8        1.0  0.5475852619548615  0.7673701478029299  0.09491112000202392  1.0000
  N   N9        1.0  0.7045317018186904  0.1507374628350228  0.6703276154606127  1.0000
  N   N10       1.0  0.2954682977402439  0.8492625373019083  0.3296723846205353  1.0000
  N   N11       1.0  0.8654660350246306  0.44530299577876986  0.2972917732293764  1.0000
  N   N12       1.0  0.13453396453430355  0.5546970043581613  0.7027082268517714  1.0000
  N   N13       1.0  0.09278941254500479  0.8047681393334927  0.5771163240884565  1.0000
  N   N14       1.0  0.9072105878530203  0.19523186080328678  0.4228836759920499  1.0000
  N   N15       1.0  0.7836071041242636  0.9355891070340077  0.6078452274487613  1.0000
  N   N16       1.0  0.21639289543467066  0.06441089310292339  0.3921547726323865  1.0000
  N   N17       1.0  0.8388830748850244  0.8117677382542171  0.4794017129852296  1.0000
  N   N18       1.0  0.16111692572344577  0.18823226106977556  0.5205982870952767  1.0000
  N   N19       1.0  0.23798657530535125  0.9652307746435438  0.7712444473102541  1.0000
  N   N20       1.0  0.7620134242535831  0.034769225493387346  0.22875555277089368  1.0000
  N   N21       1.0  0.33430914215054724  0.7647227412885435  0.5995133458376932  1.0000
  N   N22       1.0  0.6656908584579231  0.23527725803544902  0.4004866542428129  1.0000
  N   N23       1.0  0.0351536833788869  0.7023997021980221  0.42102357131864887  1.0000
  N   N24       1.0  0.9648463161800473  0.29760029793890896  0.578976428762499  1.0000
  O   O1        1.0  0.5499096318468162  0.507373143605668  0.6325137883233826  1.0000
  O   O2        1.0  0.45009036855120893  0.49262685653111155  0.36748621175712387  1.0000
  O   O3        1.0  0.5462879811939949  0.15251233853913188  0.8429783860918267  1.0000
  O   O4        1.0  0.45371201920402987  0.8474876615976477  0.1570216139886797  1.0000
  O   O5        1.0  0.9472812307590343  0.9359878789255085  0.6680392214495331  1.0000
  O   O6        1.0  0.05271876963899063  0.06401212121127109  0.3319607786309733  1.0000
  O   O7        1.0  0.32729898599767104  0.881181543173424  0.7113544362137644  1.0000
  O   O8        1.0  0.6727010135612631  0.11881845696350708  0.28864556386738344  1.0000
  O   O9        1.0  0.3544053729998183  0.7698719639171047  0.95477520611495  1.0000
  O   O10       1.0  0.6455946273982068  0.2301280362196749  0.04522479396555638  1.0000
