data_image0
_chemical_formula_structural       H76C48N8O10Cl6
_chemical_formula_sum              "H76 C48 N8 O10 Cl6"
_cell_length_a       9.55903108725377
_cell_length_b       12.1622747391658
_cell_length_c       12.975148458503492
_cell_angle_alpha    101.1350271781385
_cell_angle_beta     89.01358095113946
_cell_angle_gamma    112.57056320778501

_space_group_name_H-M_alt    "P 1"
_space_group_IT_number       1

loop_
  _space_group_symop_operation_xyz
  'x, y, z'

loop_
  _atom_site_type_symbol
  _atom_site_label
  _atom_site_symmetry_multiplicity
  _atom_site_fract_x
  _atom_site_fract_y
  _atom_site_fract_z
  _atom_site_occupancy
  H   H1        1.0  0.9084672656896291  0.41347545456026913  0.2921904965957407  1.0000
  H   H2        1.0  0.09153273428286633  0.5865245453798104  0.7078095035347499  1.0000
  H   H3        1.0  0.01003142390651682  0.5270435258145316  0.3970017903744365  1.0000
  H   H4        1.0  0.9899685760659785  0.47295647412554787  0.602998209756054  1.0000
  H   H5        1.0  0.583870040512925  0.477045043176935  0.2940166620867648  1.0000
  H   H6        1.0  0.4161299598562289  0.5229549576478744  0.7059833380229461  1.0000
  H   H7        1.0  0.6507078784006268  0.597369328121431  0.5636543866385545  1.0000
  H   H8        1.0  0.3492921215718685  0.40263067181864853  0.43634561349193607  1.0000
  H   H9        1.0  0.5559708458510086  0.5633823785146893  0.4344644652172362  1.0000
  H   H10       1.0  0.4440291540384165  0.4366176212182596  0.565535534126484  1.0000
  H   H11       1.0  0.6751903464251076  0.7808949392249138  0.426417114703488  1.0000
  H   H12       1.0  0.3248096535473878  0.21910506071516564  0.5735828854270025  1.0000
  H   H13       1.0  0.5711368265081799  0.7573752305672808  0.5414063088675398  1.0000
  H   H14       1.0  0.4288631734643155  0.2426247693727986  0.4585936912629508  1.0000
  H   H15       1.0  0.041222163671094436  0.8729048741236609  0.5844611317971963  1.0000
  H   H16       1.0  0.9587778362183306  0.12709512560928796  0.4155388675465241  1.0000
  H   H17       1.0  0.9659797010944117  0.8538104611583345  0.4546344400657152  1.0000
  H   H18       1.0  0.034020298878083714  0.14618953878174498  0.5453655600647754  1.0000
  H   H19       1.0  0.032910036095854814  0.6841195168630464  0.4682106137072304  1.0000
  H   H20       1.0  0.9670899637935703  0.3158804828699025  0.5317893856364898  1.0000
  H   H21       1.0  0.9225421746592133  0.6556881689331575  0.5811030271812344  1.0000
  H   H22       1.0  0.07745782570994075  0.34431183189165204  0.41889697292847666  1.0000
  H   H23       1.0  0.7224898070489059  0.2674849241983249  0.39185378694631257  1.0000
  H   H24       1.0  0.27751019292358947  0.7325150757417545  0.6081462131841779  1.0000
  H   H25       1.0  0.44405160640728947  0.96059892161811  0.15424637831713608  1.0000
  H   H26       1.0  0.5559483935652059  0.039401078321969395  0.8457536218133545  1.0000
  H   H27       1.0  0.1300029777742164  0.9489185164084696  0.8605339723998088  1.0000
  H   H28       1.0  0.8699970221982789  0.05108148353160976  0.13946602773068179  1.0000
  H   H29       1.0  0.18651603186319773  0.09895071891963399  0.835509744516515  1.0000
  H   H30       1.0  0.8134839685059562  0.9010492819051753  0.16449025559319588  1.0000
  H   H31       1.0  0.015504203436581982  0.03495264645496857  0.9018353420658388  1.0000
  H   H32       1.0  0.9844957965359133  0.965047353485111  0.09816465806465165  1.0000
  H   H33       1.0  0.4572873516268854  0.32006603317780397  0.1535414315443651  1.0000
  H   H34       1.0  0.5427126487422685  0.6799339676470054  0.8464585685653458  1.0000
  H   H35       1.0  0.02331154346867187  0.1882608860798242  0.8155436973718906  1.0000
  H   H36       1.0  0.9766884565038234  0.8117391138602552  0.1844563027585999  1.0000
  H   H37       1.0  0.8215450892668412  0.33494882006908766  0.7085481214251629  1.0000
  H   H38       1.0  0.17845491070565414  0.6650511798709918  0.2914518787053276  1.0000
  H   H39       1.0  0.6661791409897109  0.15672642891205132  0.6013567501910794  1.0000
  H   H40       1.0  0.3338208589827844  0.8432735710280281  0.39864324993941114  1.0000
  H   H41       1.0  0.6356989893813971  0.9469425467762987  0.522958899196712  1.0000
  H   H42       1.0  0.36430101059109826  0.053057453163780806  0.4770411009337785  1.0000
  H   H43       1.0  0.5331834863808627  0.7739737786981382  0.10888382282115663  1.0000
  H   H44       1.0  0.4668165135916326  0.22602622124194113  0.8911161773093338  1.0000
  H   H45       1.0  0.7601449509999411  0.5956162030179833  0.164807333460666  1.0000
  H   H46       1.0  0.23985504897255416  0.4043837969220961  0.8351926666698246  1.0000
  H   H47       1.0  0.6136744205300505  0.5390340874910149  0.061828994387065  1.0000
  H   H48       1.0  0.3863255794424449  0.4609659124490646  0.9381710057434256  1.0000
  H   H49       1.0  0.7425908331496498  0.6928210171415837  0.08370849819716178  1.0000
  H   H50       1.0  0.2574091668228456  0.30717898279849576  0.9162915019333288  1.0000
  H   H51       1.0  0.40714180149848916  0.56152728994306  0.28560942211723434  1.0000
  H   H52       1.0  0.5928581984740062  0.4384727099970194  0.7143905780132562  1.0000
  H   H53       1.0  0.3887662181137091  0.7179698076464405  0.19592148968565734  1.0000
  H   H54       1.0  0.6112337818587862  0.28203019229363896  0.8040785104448331  1.0000
  H   H55       1.0  0.18800723539092629  0.42759351009059043  0.12177823741949928  1.0000
  H   H56       1.0  0.8119927645815691  0.572406489849489  0.8782217627109912  1.0000
  H   H57       1.0  0.1032901632472979  0.42366230922759934  0.9986461509116245  1.0000
  H   H58       1.0  0.8967098367251974  0.5763376907124801  0.0013538492188661594  1.0000
  H   H59       1.0  0.9960833859662845  0.22125980576288762  0.051260369041224454  1.0000
  H   H60       1.0  0.00391661400621073  0.7787401941771918  0.9487396310892662  1.0000
  H   H61       1.0  0.8377570192938346  0.22745077291971783  0.20224265023354024  1.0000
  H   H62       1.0  0.16224298067866058  0.7725492270203616  0.7977573498969504  1.0000
  H   H63       1.0  0.8243251345907905  0.2733577419945472  0.9441442580852878  1.0000
  H   H64       1.0  0.17567486538170485  0.7266422579455322  0.05585574204520279  1.0000
  H   H65       1.0  0.719829695800591  0.18694722208785008  0.03606598714713707  1.0000
  H   H66       1.0  0.28017030417190436  0.8130527778522293  0.9639340129833536  1.0000
  H   H67       1.0  0.7702948669960473  0.34693019387458635  0.06067936874316695  1.0000
  H   H68       1.0  0.2297051329764479  0.653069806065493  0.9393206313873236  1.0000
  H   H69       1.0  0.048707228134611896  0.49133746860071936  0.11774946030056217  1.0000
  H   H70       1.0  0.9512927717548133  0.5086625311322296  0.8822505390431581  1.0000
  H   H71       1.0  0.15283699706524115  0.2710317927923292  0.2626697516717537  1.0000
  H   H72       1.0  0.8471630029072542  0.7289682071477502  0.7373302484587367  1.0000
  H   H73       1.0  0.6369717401073763  0.7270143474542419  0.2628378470531756  1.0000
  H   H74       1.0  0.36302825880478223  0.2729856524555327  0.7371621530782565  1.0000
  H   H75       1.0  0.3984549679972485  0.6212965002692779  0.0767911133818183  1.0000
  H   H76       1.0  0.6015450319752468  0.3787034996708016  0.9232088867486723  1.0000
  C   C1        1.0  0.7862374548224579  0.5062471712127197  0.37238058609958186  1.0000
  C   C2        1.0  0.21376254506696724  0.49375282852022917  0.6276194132441383  1.0000
  C   C3        1.0  0.6573995492941234  0.6210428631427781  0.4852330095204158  1.0000
  C   C4        1.0  0.34260045067837197  0.37895713679730125  0.5147669906100747  1.0000
  C   C5        1.0  0.671768732407976  0.7520913128863103  0.5027345291725028  1.0000
  C   C6        1.0  0.3282312675645193  0.24790868705376914  0.49726547095798773  1.0000
  C   C7        1.0  0.9445197140727725  0.8183221254406479  0.5282264062483645  1.0000
  C   C8        1.0  0.05548028621331125  0.18167787517703107  0.4717735930745763  1.0000
  C   C9        1.0  0.9308898309926675  0.6871877266060967  0.5062764374118366  1.0000
  C   C10       1.0  0.06911016937648633  0.31281227421871255  0.4937235626978745  1.0000
  C   C11       1.0  0.6032923371321102  0.30957611616334524  0.273667222523836  1.0000
  C   C12       1.0  0.3967076628403852  0.6904238837767341  0.7263327776066545  1.0000
  C   C13       1.0  0.6482701091948544  0.2320087342848652  0.32019047433663617  1.0000
  C   C14       1.0  0.3517298907776409  0.7679912656552143  0.6798095257938545  1.0000
  C   C15       1.0  0.5913597437439678  0.10820204611919082  0.2751270807995096  1.0000
  C   C16       1.0  0.4086402562285274  0.8917979538208887  0.7248729193309809  1.0000
  C   C17       1.0  0.48863639044197194  0.05761288075499392  0.1871672691782285  1.0000
  C   C18       1.0  0.5113636095305234  0.9423871191850854  0.8128327309522619  1.0000
  C   C19       1.0  0.44276829869772133  0.13695163126340545  0.14579955062005612  1.0000
  C   C20       1.0  0.5572317016714327  0.8630483695614041  0.8542004494896549  1.0000
  C   C21       1.0  0.49775715056820596  0.26124702202319816  0.1864698442286699  1.0000
  C   C22       1.0  0.5022428494042894  0.7387529779168813  0.8135301559018207  1.0000
  C   C23       1.0  0.8177164862650667  0.9466661707625524  0.6187077725642447  1.0000
  C   C24       1.0  0.18228351370742873  0.05333382917752698  0.38129222756624576  1.0000
  C   C25       1.0  0.9246658026978081  0.01583901214020999  0.7057372845434956  1.0000
  C   C26       1.0  0.0753341972746873  0.9841609877998695  0.29426271558699496  1.0000
  C   C27       1.0  0.08889843458094869  0.01521939440556231  0.8409406746425588  1.0000
  C   C28       1.0  0.9111015653915466  0.9847806055345172  0.15905932548793164  1.0000
  C   C29       1.0  0.9401023990657789  0.1338888415357915  0.7507976376837332  1.0000
  C   C30       1.0  0.05989760090671672  0.8661111584042881  0.24920236244675745  1.0000
  C   C31       1.0  0.8498473061044948  0.18603408354841938  0.7113757289052988  1.0000
  C   C32       1.0  0.15015269378493035  0.8139659161845295  0.2886242704384216  1.0000
  C   C33       1.0  0.7373515310761547  0.11648583470847566  0.6306493483530423  1.0000
  C   C34       1.0  0.2626484688963405  0.8835141652316036  0.36935065177744825  1.0000
  C   C35       1.0  0.7221539644517336  0.9988367579686351  0.5864591430572355  1.0000
  C   C36       1.0  0.2778460355207617  0.0011632419714442885  0.41354085707325505  1.0000
  C   C37       1.0  0.6786970202572159  0.6181229498863983  0.12321783229070972  1.0000
  C   C38       1.0  0.3213029797152793  0.38187705005368117  0.8767821678397807  1.0000
  C   C39       1.0  0.5705513613570673  0.6525959483203368  0.19722601160425327  1.0000
  C   C40       1.0  0.4294486386154279  0.3474040516197426  0.8027739885262373  1.0000
  C   C41       1.0  0.46656362600586826  0.6940737965274698  0.14169034588463914  1.0000
  C   C42       1.0  0.5334363738835569  0.3059262032054793  0.8583096534590812  1.0000
  C   C43       1.0  0.08238797990286702  0.4167079923886342  0.08100864697747896  1.0000
  C   C44       1.0  0.9176120200696284  0.5832920075514452  0.9189913531530115  1.0000
  C   C45       1.0  0.9574848063339375  0.29482599349205796  0.08538042023236975  1.0000
  C   C46       1.0  0.042515193555487725  0.705174006240891  0.9146195791113504  1.0000
  C   C47       1.0  0.8093777483351894  0.27411029075388327  0.02828899454031162  1.0000
  C   C48       1.0  0.19062225163730598  0.7258897091861962  0.971711005590179  1.0000
  N   N1        1.0  0.9063267531828307  0.47642267968305735  0.35743937954302557  1.0000
  N   N2        1.0  0.09367324678966461  0.5235773202570222  0.642560620587465  1.0000
  N   N3        1.0  0.6518003765357454  0.43424837551151757  0.31608951658531265  1.0000
  N   N4        1.0  0.3481996233536797  0.5657516242214313  0.6839104827584076  1.0000
  N   N5        1.0  0.7934145182979377  0.6078783227254269  0.4396830063962392  1.0000
  N   N6        1.0  0.2065854815914875  0.3921216770075222  0.5603169929474812  1.0000
  N   N7        1.0  0.8071822313637216  0.8313239802196389  0.5696636773132547  1.0000
  N   N8        1.0  0.19281776860877373  0.16867601972044052  0.4303363228172358  1.0000
  O   O1        1.0  0.004675253585020281  0.9587056259270398  0.7423933053751385  1.0000
  O   O2        1.0  0.9953247463874749  0.041294374013039516  0.25760669475535203  1.0000
  O   O3        1.0  0.8765349284570262  0.30383136091505464  0.7540561342442972  1.0000
  O   O4        1.0  0.12346507151546919  0.6961686390250248  0.2459438658861933  1.0000
  O   O5        1.0  0.4845028476709684  0.5463045709185843  0.23913920997301963  1.0000
  O   O6        1.0  0.5154971526981856  0.4536954299062251  0.7608607901366913  1.0000
  O   O7        1.0  0.9363214354604726  0.291329283792115  0.19641133206321282  1.0000
  O   O8        1.0  0.06367856451202265  0.7086707161479645  0.8035886680672778  1.0000
  O   O9        1.0  0.2561183560991769  0.2918798005692983  0.2909174299572291  1.0000
  O   O10       1.0  0.7438816438733186  0.7081201993707812  0.7090825701732616  1.0000
  Cl  Cl1       1.0  0.6474199841864053  0.012898506311695177  0.3326233860206983  1.0000
  Cl  Cl2       1.0  0.35258001618274853  0.9871014945131141  0.6673766140890126  1.0000
  Cl  Cl3       1.0  0.3103422802697096  0.07738404080067118  0.03945354061566929  1.0000
  Cl  Cl4       1.0  0.6896577197027857  0.9226159591394082  0.9605464595148214  1.0000
  Cl  Cl5       1.0  0.7311694671495499  0.3895596218303618  0.5979913075479447  1.0000
  Cl  Cl6       1.0  0.26883053282294544  0.6104403781097176  0.4020086925825458  1.0000
