data_image0
_chemical_formula_structural       H40C36N4O8Cl4
_chemical_formula_sum              "H40 C36 N4 O8 Cl4"
_cell_length_a       7.111337678252923
_cell_length_b       9.62344211856802
_cell_length_c       14.000241643374242
_cell_angle_alpha    83.04688820600543
_cell_angle_beta     81.51372577995804
_cell_angle_gamma    77.80366807759223

_space_group_name_H-M_alt    "P 1"
_space_group_IT_number       1

loop_
  _space_group_symop_operation_xyz
  'x, y, z'

loop_
  _atom_site_type_symbol
  _atom_site_label
  _atom_site_symmetry_multiplicity
  _atom_site_fract_x
  _atom_site_fract_y
  _atom_site_fract_z
  _atom_site_occupancy
  H   H1        1.0  0.7284489728183557  0.7534575080256855  0.4880981883777743  1.0000
  H   H2        1.0  0.2715510263125854  0.246542492007099  0.5119018118970009  1.0000
  H   H3        1.0  0.6441378778785414  0.18181507196279997  0.6495497270508978  1.0000
  H   H4        1.0  0.3558621228471924  0.8181849281583147  0.35045027250049315  1.0000
  H   H5        1.0  0.5148402321531255  0.537263320684206  0.7465450158226199  1.0000
  H   H6        1.0  0.48515976745744  0.4627366783819026  0.2534549837286077  1.0000
  H   H7        1.0  0.5740581865752621  0.7602200693162913  0.6478278732057596  1.0000
  H   H8        1.0  0.42594181255567903  0.2397799307164931  0.3521721270690156  1.0000
  H   H9        1.0  0.8688265772947927  0.6441955452586314  0.3465708957452799  1.0000
  H   H10       1.0  0.1311734218361483  0.3558044547741531  0.6534291045294953  1.0000
  H   H11       1.0  0.9389220805018995  0.18530747330730352  0.3526361212898763  1.0000
  H   H12       1.0  0.06107792003702015  0.8146925267171542  0.647363878986832  1.0000
  H   H13       1.0  0.7963622417658089  0.17204644998771318  0.5210651436578482  1.0000
  H   H14       1.0  0.20363775895992484  0.8279535501334014  0.47893485589354273  1.0000
  H   H15       1.0  0.7407516091776754  0.3580780223538906  0.834905204675389  1.0000
  H   H16       1.0  0.25924839014007955  0.6419219777755509  0.16509479487406883  1.0000
  H   H17       1.0  0.3147315437245825  0.1594563832309886  0.7454527479373547  1.0000
  H   H18       1.0  0.6852684568143373  0.840543616793469  0.2545472523393535  1.0000
  H   H19       1.0  0.7517286658371459  0.4904524092968495  0.9559430574891818  1.0000
  H   H20       1.0  0.24827133488858774  0.5095475908242652  0.04405694206220905  1.0000
  H   H21       1.0  0.8887888398047317  0.3112408734246747  0.9774544179747334  1.0000
  H   H22       1.0  0.11121116073418805  0.6887591265997831  0.022545582301974912  1.0000
  H   H23       1.0  0.7963788829672012  0.41841124032579946  0.07626214214781665  1.0000
  H   H24       1.0  0.20362111635055377  0.5815887598036421  0.9237378574016413  1.0000
  H   H25       1.0  0.3639614869757536  0.013332897446873503  0.10599457167595594  1.0000
  H   H26       1.0  0.6360385137499801  0.9866671026742414  0.894005427875435  1.0000
  H   H27       1.0  0.2680423496392923  0.12518242694186865  0.20255062683476535  1.0000
  H   H28       1.0  0.7319576508996274  0.874817573082589  0.7974493734419429  1.0000
  H   H29       1.0  0.5034486529752811  0.1319041775717477  0.1381427816363227  1.0000
  H   H30       1.0  0.4965513477504526  0.868095822549367  0.8618572179150682  1.0000
  H   H31       1.0  0.006449449299932545  0.11970386034655033  0.8023056575137248  1.0000
  H   H32       1.0  0.9935505498310083  0.8802961396862342  0.19769434276105044  1.0000
  H   H33       1.0  0.9679007861625042  0.9843197407154087  0.899735309488305  1.0000
  H   H34       1.0  0.03209921456322951  0.01568025940570611  0.10026469006308593  1.0000
  H   H35       1.0  0.19693047734451002  0.970058447497388  0.8240159911033629  1.0000
  H   H36       1.0  0.8030695222660554  0.029941551568720498  0.1759840084478647  1.0000
  H   H37       1.0  0.4957884301962837  0.022435615451495798  0.6137859730918589  1.0000
  H   H38       1.0  0.5042115689346574  0.9775643845812886  0.38621402718291636  1.0000
  H   H39       1.0  0.7016764487848829  0.9787564408385407  0.5571756285102033  1.0000
  H   H40       1.0  0.2983235519408508  0.02124355928257396  0.44282437104118755  1.0000
  C   C1        1.0  0.6473837235932755  0.3994746235492805  0.6326497487585417  1.0000
  C   C2        1.0  0.3526162757244795  0.600525376580161  0.3673502507909161  1.0000
  C   C3        1.0  0.5864513972103258  0.5321164890687943  0.6727386898305204  1.0000
  C   C4        1.0  0.41354860221342576  0.4678835099006572  0.3272613104460244  1.0000
  C   C5        1.0  0.6163816861997002  0.6564984593838337  0.61879639328524  1.0000
  C   C6        1.0  0.38361831293124077  0.34350154064895083  0.38120360698953515  1.0000
  C   C7        1.0  0.7639063054799753  0.533784522110293  0.48154576974109997  1.0000
  C   C8        1.0  0.23609369524575832  0.46621547801082175  0.518454229810291  1.0000
  C   C9        1.0  0.8508631888281954  0.5412937431592854  0.38441746539753224  1.0000
  C   C10       1.0  0.14913681030274553  0.4587062568734991  0.615582534877243  1.0000
  C   C11       1.0  0.9101351476071325  0.4166304037270976  0.3392276759516428  1.0000
  C   C12       1.0  0.08986485171062229  0.583369596402344  0.6607723235978151  1.0000
  C   C13       1.0  0.8900812925417572  0.28320841227679144  0.3886346160818548  1.0000
  C   C14       1.0  0.10991870658918382  0.716791587755993  0.6113653841929204  1.0000
  C   C15       1.0  0.8075319835014355  0.27658871127591544  0.484260795325403  1.0000
  C   C16       1.0  0.19246801581631953  0.7234112888535261  0.5157392042240548  1.0000
  C   C17       1.0  0.7396459660008611  0.4008551647217607  0.5332765903841311  1.0000
  C   C18       1.0  0.26035403331689394  0.5991448354076807  0.4667234091653269  1.0000
  C   C19       1.0  0.5318446104834132  0.26378654668782225  0.7814230243152177  1.0000
  C   C20       1.0  0.46815539005550644  0.7362134533366355  0.21857697596149062  1.0000
  C   C21       1.0  0.6122795447372987  0.31125028485545275  0.8537994147526962  1.0000
  C   C22       1.0  0.38772045598843485  0.6887497152656621  0.14620058479869485  1.0000
  C   C23       1.0  0.5256878321801712  0.2968770429931829  0.9501270180463436  1.0000
  C   C24       1.0  0.47431216854556246  0.7031229571279318  0.049872981505047514  1.0000
  C   C25       1.0  0.35951129767252626  0.23526944669995561  0.973331487922986  1.0000
  C   C26       1.0  0.6404887028663935  0.7647305533245021  0.026668512353722383  1.0000
  C   C27       1.0  0.2865953304448403  0.18268224528792498  0.8997411207829551  1.0000
  C   C28       1.0  0.7134046688729145  0.8173177548415166  0.10025887876650275  1.0000
  C   C29       1.0  0.37086283163807393  0.19864622145077773  0.8031505498544809  1.0000
  C   C30       1.0  0.629137167679681  0.8013537786786638  0.19684944969497714  1.0000
  C   C31       1.0  0.7685610601257361  0.3930917179362377  0.0062683744275674694  1.0000
  C   C32       1.0  0.23143893919201883  0.6069082821932038  0.9937316251218904  1.0000
  C   C33       1.0  0.3565677895209572  0.11796380623876092  0.13173125038607736  1.0000
  C   C34       1.0  0.6434322096099839  0.8820361937940235  0.8682687498886978  1.0000
  C   C35       1.0  0.07327731737986393  0.0438794880160316  0.8588011462149139  1.0000
  C   C36       1.0  0.9267226833458696  0.9561205121050832  0.14119885333647714  1.0000
  N   N1        1.0  0.7024029889062146  0.6573447545835467  0.526610731739289  1.0000
  N   N2        1.0  0.2975970116327052  0.342655245440911  0.4733892685374193  1.0000
  N   N3        1.0  0.6182677364519659  0.276099707706736  0.6831504764751691  1.0000
  N   N4        1.0  0.38173226427376766  0.7239002924143788  0.3168495230762218  1.0000
  O   O1        1.0  0.5914018124264605  0.339437086647827  0.026153296682546293  1.0000
  O   O2        1.0  0.40859818689129446  0.6605629134816144  0.9738467028669116  1.0000
  O   O3        1.0  0.26417536009245396  0.22996706831428707  0.06610785652614379  1.0000
  O   O4        1.0  0.7358246406332798  0.7700329318068277  0.933892143025247  1.0000
  O   O5        1.0  0.1339958465797601  0.11594543094954135  0.9293997550409335  1.0000
  O   O6        1.0  0.866004152551181  0.884054569083243  0.07060024523384165  1.0000
  O   O7        1.0  0.6360886968757647  0.005430062898052592  0.6218089417006699  1.0000
  O   O8        1.0  0.36391130395596566  0.9945699360630721  0.378191058577808  1.0000
  Cl  Cl1       1.0  0.012054465796219176  0.4220901683854045  0.21952746853889238  1.0000
  Cl  Cl2       1.0  0.9879455347427007  0.5779098316390533  0.7804725317378159  1.0000
  Cl  Cl3       1.0  0.795104159158904  0.9314475560770777  0.4083083471361794  1.0000
  Cl  Cl4       1.0  0.20489584156682952  0.06855244404403713  0.5916916524152115  1.0000
