data_image0
_chemical_formula_structural       H16C12N8S8I16
_chemical_formula_sum              "H16 C12 N8 S8 I16"
_cell_length_a       9.478133465290012
_cell_length_b       7.864126386558637
_cell_length_c       17.230520551317824
_cell_angle_alpha    90.0
_cell_angle_beta     98.00440773729134
_cell_angle_gamma    90.0

_space_group_name_H-M_alt    "P 1"
_space_group_IT_number       1

loop_
  _space_group_symop_operation_xyz
  'x, y, z'

loop_
  _atom_site_type_symbol
  _atom_site_label
  _atom_site_symmetry_multiplicity
  _atom_site_fract_x
  _atom_site_fract_y
  _atom_site_fract_z
  _atom_site_occupancy
  H   H1        1.0  0.7612015961915432  0.7372729347165572  0.7025760471935292  1.0000
  H   H2        1.0  0.7387984028871136  0.23727293513355427  0.7974239527543916  1.0000
  H   H3        1.0  0.23879840364010324  0.2627270644494486  0.29742395316386466  1.0000
  H   H4        1.0  0.26120159680377036  0.7627270653040484  0.20257604701694187  1.0000
  H   H5        1.0  0.8645613571719271  0.9277867472311634  0.7110234434268913  1.0000
  H   H6        1.0  0.6354386429628308  0.4277867463765635  0.7889765565252487  1.0000
  H   H7        1.0  0.13543864265971947  0.07221325320643938  0.2889765569305024  1.0000
  H   H8        1.0  0.36456135672805334  0.5722132527894422  0.21102344324608482  1.0000
  H   H9        1.0  0.946174368393593  0.7315855184923665  0.6918464321649459  1.0000
  H   H10       1.0  0.5538256317411647  0.23158551890936355  0.8081535677871942  1.0000
  H   H11       1.0  0.053825631297291086  0.2684144806736393  0.3081535676063877  1.0000
  H   H12       1.0  0.44617436794971943  0.7684144815282392  0.19184643198413934  1.0000
  H   H13       1.0  0.8998840229795271  0.9802480505877768  0.4389234072084528  1.0000
  H   H14       1.0  0.6001159760474546  0.48024805100477386  0.0610765926281183  1.0000
  H   H15       1.0  0.10011597671135705  0.019751948578228998  0.5610765925628806  1.0000
  H   H16       1.0  0.3998840236434295  0.5197519494328289  0.9389234071432151  1.0000
  C   C1        1.0  0.8132710589870112  0.8371665861388826  0.5944177559132768  1.0000
  C   C2        1.0  0.6867289411477464  0.3371665865558797  0.9055822440388631  1.0000
  C   C3        1.0  0.18672894070387286  0.16283341302712315  0.40558224385805663  1.0000
  C   C4        1.0  0.31327105854313764  0.662833413881723  0.09441775573247035  1.0000
  C   C5        1.0  0.7059759215654443  0.8606156802830442  0.45732185991233515  1.0000
  C   C6        1.0  0.794024078517638  0.36061568070004146  0.042678139928455296  1.0000
  C   C7        1.0  0.29402407812543974  0.1393843188829614  0.5426781398589983  1.0000
  C   C8        1.0  0.20597592222934677  0.6393843197375614  0.9573218598470973  1.0000
  C   C9        1.0  0.8473323529657765  0.8059437995341712  0.6798672089756084  1.0000
  C   C10       1.0  0.6526676461128804  0.3059437999511684  0.8201327909723123  1.0000
  C   C11       1.0  0.15266764672510763  0.19405620090343156  0.3201327907957251  1.0000
  C   C12       1.0  0.3473323535780036  0.6940562004864345  0.17986720879902118  1.0000
  N   N1        1.0  0.8383919492584987  0.9231017475008726  0.4764903780377004  1.0000
  N   N2        1.0  0.6616080508245837  0.4231017479178697  0.023509621803090023  1.0000
  N   N3        1.0  0.16160805043238546  0.07689825166513312  0.5235096217336331  1.0000
  N   N4        1.0  0.33839194886630036  0.576898252519733  0.9764903779682435  1.0000
  N   N5        1.0  0.9000433098931183  0.910756336805803  0.55234015182989  1.0000
  N   N6        1.0  0.5999566891855388  0.4107563359512031  0.9476598481180308  1.0000
  N   N7        1.0  0.0999566897977659  0.08924366363179978  0.4476598479414434  1.0000
  N   N8        1.0  0.4000433106461077  0.5892436632148026  0.05234015223936307  1.0000
  S   S1        1.0  0.6501072055226169  0.7791498265430775  0.5411452335410364  1.0000
  S   S2        1.0  0.8498927946121407  0.2791498269600746  0.9588547664111036  1.0000
  S   S3        1.0  0.3498927943090295  0.22085017262292828  0.4588547668163573  1.0000
  S   S4        1.0  0.15010720507874334  0.7208501734775282  0.04114523336022992  1.0000
  S   S5        1.0  0.6160679090547905  0.8643739273593523  0.3654994698484931  1.0000
  S   S6        1.0  0.883932091028292  0.36437392777634936  0.13450052999229736  1.0000
  S   S7        1.0  0.38393209077685597  0.13562607180665348  0.6345005305089008  1.0000
  S   S8        1.0  0.11606790866259212  0.6356260726612534  0.8654994697790361  1.0000
  I   I1        1.0  0.3754318047146283  0.7395326478908487  0.3935560820022435  1.0000
  I   I2        1.0  0.1245681957292453  0.2395326483078458  0.10644391817856301  1.0000
  I   I3        1.0  0.6245681949762558  0.2604673525467541  0.60644391776909  1.0000
  I   I4        1.0  0.875431805158502  0.7604673521297569  0.89355608218305  1.0000
  I   I5        1.0  0.2715380381405126  0.6573506586612963  0.6206287325607646  1.0000
  I   I6        1.0  0.22846196235503635  0.15735065780669644  0.8793712677313915  1.0000
  I   I7        1.0  0.7284619627472346  0.34264934177630646  0.37937126780084846  1.0000
  I   I8        1.0  0.7715380374766101  0.8426493413593094  0.12062873262600224  1.0000
  I   I9        1.0  0.4341538206123999  0.7416493241981434  0.7645201927700009  1.0000
  I   I10       1.0  0.0658461788270483  0.24164932334354344  0.7354798075179358  1.0000
  I   I11       1.0  0.5658461792192466  0.2583506762394594  0.23547980758739273  1.0000
  I   I12       1.0  0.9341538208638359  0.7583506758224622  0.26452019225339773  1.0000
  I   I13       1.0  0.09489537519343906  0.6143043120793541  0.42536333609567717  1.0000
  I   I14       1.0  0.40510462525043456  0.11430431249635126  0.07463666408512935  1.0000
  I   I15       1.0  0.9051046244974451  0.38569568708665164  0.5746366636756562  1.0000
  I   I16       1.0  0.5948953745812119  0.8856956879412515  0.9253633362722644  1.0000
