data_image0
_chemical_formula_structural       H88C88N8O4
_chemical_formula_sum              "H88 C88 N8 O4"
_cell_length_a       7.599939861605762
_cell_length_b       8.802344945281353
_cell_length_c       26.250458777725665
_cell_angle_alpha    90.0
_cell_angle_beta     94.12637055117192
_cell_angle_gamma    90.0

_space_group_name_H-M_alt    "P 1"
_space_group_IT_number       1

loop_
  _space_group_symop_operation_xyz
  'x, y, z'

loop_
  _atom_site_type_symbol
  _atom_site_label
  _atom_site_symmetry_multiplicity
  _atom_site_fract_x
  _atom_site_fract_y
  _atom_site_fract_z
  _atom_site_occupancy
  H   H1        1.0  0.2966126498044216  0.48371647401553913  0.9066536710048814  1.0000
  H   H2        1.0  0.7033873498655936  0.9837164748516031  0.593346328793347  1.0000
  H   H3        1.0  0.7033873501989084  0.516283525384467  0.09334632904466786  1.0000
  H   H4        1.0  0.29661265013773647  0.01628352568446391  0.4066536712562023  1.0000
  H   H5        1.0  0.1642557186767216  0.5949471172232741  0.1618797997593445  1.0000
  H   H6        1.0  0.8357442816708706  0.09494711638721019  0.33812020016082106  1.0000
  H   H7        1.0  0.8357442813266085  0.4050528833127928  0.8381202002902048  1.0000
  H   H8        1.0  0.1642557183324594  0.9050528830127959  0.6618797998887281  1.0000
  H   H9        1.0  0.32718555543512906  0.1637826134924231  0.06493223413039638  1.0000
  H   H10       1.0  0.6728144449124631  0.663782613192426  0.4350677657897692  1.0000
  H   H11       1.0  0.6728144445682009  0.8362173870436439  0.935067765919153  1.0000
  H   H12       1.0  0.3271855551018142  0.33621738734364087  0.5649322338790755  1.0000
  H   H13       1.0  0.38072038145508214  0.21054016759403013  0.9028722411517583  1.0000
  H   H14       1.0  0.619279618214933  0.7105401672940331  0.5971277586464699  1.0000
  H   H15       1.0  0.6192796185482479  0.7894598329420368  0.09712775889779085  1.0000
  H   H16       1.0  0.380720381788397  0.28945983324203384  0.4028722414030793  1.0000
  H   H17       1.0  0.38916365588621593  0.051057598037091555  0.9809609305720033  1.0000
  H   H18       1.0  0.6108363437837993  0.5510575988731555  0.519039069226225  1.0000
  H   H19       1.0  0.6108363441280614  0.9489424013629144  0.019039069096841343  1.0000
  H   H20       1.0  0.3891636562195308  0.44894240166291144  0.4809609308233242  1.0000
  H   H21       1.0  0.11673991133870473  0.9055955554517533  0.0012771361444598487  1.0000
  H   H22       1.0  0.8832600890088874  0.40559555461568936  0.49872286377570574  1.0000
  H   H23       1.0  0.8832600886646254  0.09440444508431371  0.9987228639050894  1.0000
  H   H24       1.0  0.11673991099444253  0.5944044447843168  0.5012771362738435  1.0000
  H   H25       1.0  0.07245453299443268  0.8663363702973189  0.16392605695712187  1.0000
  H   H26       1.0  0.9275454660339854  0.366336369461255  0.33607394293240067  1.0000
  H   H27       1.0  0.9275454670198447  0.13366363023874808  0.8360739427117228  1.0000
  H   H28       1.0  0.07245453396934466  0.6336636299387511  0.6639260571171486  1.0000
  H   H29       1.0  0.04913941852881908  0.020143858381175092  0.08530555138155332  1.0000
  H   H30       1.0  0.950860580499599  0.5201438580811781  0.4146944485079692  1.0000
  H   H31       1.0  0.9508605814745109  0.9798561421548919  0.9146944486679959  1.0000
  H   H32       1.0  0.04913941951467837  0.47985614245488883  0.5853055511608755  1.0000
  H   H33       1.0  0.25437104659921067  0.3490399216457651  0.13348250298250258  1.0000
  H   H34       1.0  0.7456289537483816  0.8490399213457681  0.36651749693766295  1.0000
  H   H35       1.0  0.7456289534041194  0.6509600788903019  0.8665174970670467  1.0000
  H   H36       1.0  0.2543710462549485  0.15096007919029886  0.6334825031118861  1.0000
  H   H37       1.0  0.9639285452203976  0.2983226476948826  0.11415724568946314  1.0000
  H   H38       1.0  0.03607145512719457  0.7983226473948857  0.38584275423070247  1.0000
  H   H39       1.0  0.03607145478293237  0.7016773517051235  0.8858427543600861  1.0000
  H   H40       1.0  0.9639285448761356  0.20167735200512044  0.6141572458188468  1.0000
  H   H41       1.0  0.41013504010717794  0.17566651723060547  0.23882141931808754  1.0000
  H   H42       1.0  0.5898649602404143  0.6756665169306085  0.26117858060207805  1.0000
  H   H43       1.0  0.5898649598961521  0.8243334833054615  0.7611785807314617  1.0000
  H   H44       1.0  0.4101350397629157  0.32433348360545844  0.7388214194474712  1.0000
  H   H45       1.0  0.9943508944047321  0.9675299994424136  0.2672294994181485  1.0000
  H   H46       1.0  0.005649105931912834  0.4675299997424105  0.2327705008827216  1.0000
  H   H47       1.0  0.005649105598597932  0.032469999957592484  0.7327705006314008  1.0000
  H   H48       1.0  0.9943508940714172  0.5324699996575954  0.7672294991668276  1.0000
  H   H49       1.0  0.7133907984504001  0.9938045434914946  0.21478883334514098  1.0000
  H   H50       1.0  0.2866092018971922  0.4938045437914915  0.2852111665750246  1.0000
  H   H51       1.0  0.28660920155292996  0.006195455908511534  0.7852111667044083  1.0000
  H   H52       1.0  0.7133907981061378  0.5061954567445754  0.7147888334745246  1.0000
  H   H53       1.0  0.5589986083381925  0.24005022447259491  0.14441350396627547  1.0000
  H   H54       1.0  0.4410013920093999  0.7400502253086588  0.3555864959538901  1.0000
  H   H55       1.0  0.4410013916651377  0.7599497749274112  0.8555864960832738  1.0000
  H   H56       1.0  0.5589986079939302  0.25994977522740814  0.6444135040956591  1.0000
  H   H57       1.0  0.581140439334571  0.052150480679137634  0.12350238831143694  1.0000
  H   H58       1.0  0.41885956101302124  0.5521504803791406  0.3764976116087286  1.0000
  H   H59       1.0  0.41885956067970626  0.9478495198569294  0.8764976113574078  1.0000
  H   H60       1.0  0.5811404389903089  0.4478495190208654  0.6235023884408205  1.0000
  H   H61       1.0  0.6746158964672987  0.20419373259889323  0.08904692699731537  1.0000
  H   H62       1.0  0.3253841038802937  0.7041937322988963  0.4109530729228502  1.0000
  H   H63       1.0  0.3253841035360315  0.7958062679371738  0.9109530730522338  1.0000
  H   H64       1.0  0.6746158961230363  0.2958062671011098  0.589046927126699  1.0000
  H   H65       1.0  0.29108061122384293  0.8470073800046575  0.25503893499551683  1.0000
  H   H66       1.0  0.7089193891237493  0.3470073803046545  0.24496106492464878  1.0000
  H   H67       1.0  0.7089193887794871  0.15299262053140944  0.7449610650540325  1.0000
  H   H68       1.0  0.29108061089052806  0.6529926202314125  0.7550389347441959  1.0000
  H   H69       1.0  0.5103743442711031  0.9146617747939958  0.26572810325300195  1.0000
  H   H70       1.0  0.48962565607648917  0.41466177509399266  0.23427189666716364  1.0000
  H   H71       1.0  0.489625655732227  0.08533822574207126  0.7342718967965473  1.0000
  H   H72       1.0  0.5103743439377882  0.5853382254420744  0.765728103001681  1.0000
  H   H73       1.0  0.40481324416157033  0.9149786483109209  0.202718488621865  1.0000
  H   H74       1.0  0.595186756186022  0.4149786486109179  0.2972815112983006  1.0000
  H   H75       1.0  0.5951867558417597  0.08502135108908515  0.7972815114276843  1.0000
  H   H76       1.0  0.4048132438173081  0.5850213507890882  0.7027184887512486  1.0000
  H   H77       1.0  0.24899778146628962  0.23540099631187186  0.31688355631347254  1.0000
  H   H78       1.0  0.7510022188813027  0.7354009971479358  0.18311644360669302  1.0000
  H   H79       1.0  0.7510022185370404  0.7645990030881342  0.6831164437360766  1.0000
  H   H80       1.0  0.24899778112202742  0.2645990033881312  0.8168835564428563  1.0000
  H   H81       1.0  0.43088157351133005  0.10942515386383928  0.3304434085300094  1.0000
  H   H82       1.0  0.5691184255061407  0.6094251535638423  0.16955659174021764  1.0000
  H   H83       1.0  0.5691184264920001  0.8905748466722276  0.6695565915195397  1.0000
  H   H84       1.0  0.43088157449718933  0.39057484583616375  0.8304434083093316  1.0000
  H   H85       1.0  0.21154899055071777  0.03806989524758836  0.3254197577132815  1.0000
  H   H86       1.0  0.7884510097859272  0.5380698949475914  0.1745802425875886  1.0000
  H   H87       1.0  0.7884510094526123  0.9619301041524176  0.6745802423362678  1.0000
  H   H88       1.0  0.21154899021740287  0.46193010445241467  0.8254197574619606  1.0000
  C   C1        1.0  0.26255574262399844  0.47947489859079795  0.9875715559935438  1.0000
  C   C2        1.0  0.7374442570350694  0.9794748982908009  0.512428444185389  1.0000
  C   C3        1.0  0.7374442573793315  0.520525101945269  0.012428444056005442  1.0000
  C   C4        1.0  0.2625557429682606  0.020525102245265985  0.4875715558641601  1.0000
  C   C5        1.0  0.2740656202162188  0.3877398899062241  0.03341180464739045  1.0000
  C   C6        1.0  0.7259343801313735  0.8877398896062272  0.4665881952727751  1.0000
  C   C7        1.0  0.7259343797871112  0.6122601106298429  0.9665881954021588  1.0000
  C   C8        1.0  0.2740656198719566  0.11226010979377896  0.5334118047767741  1.0000
  C   C9        1.0  0.19173055464415786  0.5954555147046066  0.08009628353054099  1.0000
  C   C10       1.0  0.8082694457034344  0.09545551386854259  0.41990371638962454  1.0000
  C   C11       1.0  0.8082694453591722  0.40454448583146047  0.9199037165190083  1.0000
  C   C12       1.0  0.19173055429989563  0.9045444855314635  0.5800962836599246  1.0000
  C   C13       1.0  0.1779558857610062  0.6853039090718328  0.0337569207904669  1.0000
  C   C14       1.0  0.8220441132564645  0.18530390937182978  0.4662430794797601  1.0000
  C   C15       1.0  0.8220441142423238  0.31469609032817325  0.9662430792590824  1.0000
  C   C16       1.0  0.17795588674686547  0.8146960911642372  0.5337569205697891  1.0000
  C   C17       1.0  0.3040082165837858  0.41241617007363995  0.9405852902496529  1.0000
  C   C18       1.0  0.6959917830862294  0.9124161697736431  0.5594147095485754  1.0000
  C   C19       1.0  0.6959917834195442  0.5875838293263661  0.059414709799896305  1.0000
  C   C20       1.0  0.30400821691710067  0.08758382962636305  0.44058529050097384  1.0000
  C   C21       1.0  0.15358518249728398  0.663572646415222  0.12720979538451185  1.0000
  C   C22       1.0  0.8464148178393609  0.16357264671521893  0.3727902049163583  1.0000
  C   C23       1.0  0.846414817506046  0.3364273529847841  0.8727902046650373  1.0000
  C   C24       1.0  0.15358518216396908  0.836427353820848  0.627209795133191  1.0000
  C   C25       1.0  0.32098691115354283  0.2317993026498898  0.030186489574497412  1.0000
  C   C26       1.0  0.6790130891940493  0.7317993034859538  0.46981351034566815  1.0000
  C   C27       1.0  0.6790130888497872  0.7682006967501163  0.9698135104750519  1.0000
  C   C28       1.0  0.32098691080928066  0.2682006970501133  0.530186489703881  1.0000
  C   C29       1.0  0.35008823373755915  0.2618825192979663  0.9389375906379319  1.0000
  C   C30       1.0  0.6499117659324559  0.7618825201340302  0.5610624091602963  1.0000
  C   C31       1.0  0.6499117662657709  0.7381174801020398  0.06106240941161718  1.0000
  C   C32       1.0  0.350088234070874  0.23811748040203676  0.43893759088925294  1.0000
  C   C33       1.0  0.356503457584793  0.17103773930230565  0.9838692076770673  1.0000
  C   C34       1.0  0.6434965420852221  0.6710377401383696  0.5161307921211611  1.0000
  C   C35       1.0  0.643496542418537  0.8289622600977004  0.016130792372481946  1.0000
  C   C36       1.0  0.3565034579181079  0.3289622603976974  0.48386920792838817  1.0000
  C   C37       1.0  0.12623516775267155  0.8401614553817759  0.036589652888188676  1.0000
  C   C38       1.0  0.8737648325949207  0.3401614556817728  0.46341034703197687  1.0000
  C   C39       1.0  0.8737648322506584  0.15983854515429113  0.9634103471613605  1.0000
  C   C40       1.0  0.12623516740840934  0.6598385448542942  0.5365896530175723  1.0000
  C   C41       1.0  0.1033616490871048  0.8133195136641137  0.12818638391985474  1.0000
  C   C42       1.0  0.8966383512604875  0.3133195139641107  0.3718136160003108  1.0000
  C   C43       1.0  0.8966383509162252  0.18668048573589235  0.8718136161296944  1.0000
  C   C44       1.0  0.10336164875378989  0.6866804854358953  0.6281863836685339  1.0000
  C   C45       1.0  0.0899670552048792  0.9019734717685762  0.08263709173922572  1.0000
  C   C46       1.0  0.910032945142713  0.4019734720685731  0.4173629081809399  1.0000
  C   C47       1.0  0.9100329448093981  0.09802652763142991  0.917362907929619  1.0000
  C   C48       1.0  0.08996705486061701  0.598026527331433  0.5826370918686095  1.0000
  C   C49       1.0  0.9695057677544728  0.22733805053535508  0.14836208958433542  1.0000
  C   C50       1.0  0.030494232582172095  0.727338051371419  0.3516379107165347  1.0000
  C   C51       1.0  0.030494232248857195  0.772661948864651  0.8516379104652139  1.0000
  C   C52       1.0  0.9695057674211579  0.2726619491646479  0.6483620893330144  1.0000
  C   C53       1.0  0.12880442818130364  0.2149921062812327  0.178766539501301  1.0000
  C   C54       1.0  0.8711955721662885  0.7149921059812356  0.3212334604188645  1.0000
  C   C55       1.0  0.8711955718220263  0.7850078942548343  0.8212334605482482  1.0000
  C   C56       1.0  0.12880442783704146  0.28500789341877036  0.6787665396306846  1.0000
  C   C57       1.0  0.14067451433654432  0.11977878469363935  0.22206897385854932  1.0000
  C   C58       1.0  0.859325486011048  0.6197787843936424  0.27793102606161624  1.0000
  C   C59       1.0  0.8593254856667857  0.8802212158424275  0.777931026191  1.0000
  C   C60       1.0  0.14067451399228215  0.3802212150063637  0.7220689739879329  1.0000
  C   C61       1.0  0.3149464687255123  0.09426462097975397  0.25251389009794956  1.0000
  C   C62       1.0  0.6850535316111327  0.594264621815818  0.24748611020292055  1.0000
  C   C63       1.0  0.6850535312778177  0.9057353784202521  0.7474861099515997  1.0000
  C   C64       1.0  0.31494646839219737  0.40573537872024906  0.7525138898466286  1.0000
  C   C65       1.0  0.9877919504640771  0.043413651972915884  0.23421125186440683  1.0000
  C   C66       1.0  0.012208048553393566  0.5434136528089798  0.26578874840582023  1.0000
  C   C67       1.0  0.012208049539252853  0.9565863474270903  0.7657887481851423  1.0000
  C   C68       1.0  0.9877919514499365  0.45658634772708717  0.734211251643729  1.0000
  C   C69       1.0  0.819214285703115  0.14721043858825755  0.1603523709872339  1.0000
  C   C70       1.0  0.18078571464447712  0.6472104382882605  0.33964762893293166  1.0000
  C   C71       1.0  0.18078571430021492  0.8527895608117485  0.8396476290623153  1.0000
  C   C72       1.0  0.8192142853698002  0.3527895611117455  0.660352370735913  1.0000
  C   C73       1.0  0.8292522964996945  0.0561403845307047  0.20429169701616096  1.0000
  C   C74       1.0  0.1707477038369505  0.5561403842307078  0.29570830328470915  1.0000
  C   C75       1.0  0.17074770350363558  0.9438596148693014  0.7957083030333884  1.0000
  C   C76       1.0  0.8292522961663796  0.44385961516929834  0.7042916967648402  1.0000
  C   C77       1.0  0.6505189084014127  0.16169822233142508  0.12723843216994993  1.0000
  C   C78       1.0  0.34948109194617955  0.6616982220314281  0.3727615677502156  1.0000
  C   C79       1.0  0.3494810916019173  0.8383017782046419  0.8727615678795994  1.0000
  C   C80       1.0  0.6505189080571505  0.33830177850463883  0.6272384322993337  1.0000
  C   C81       1.0  0.3845873377726576  0.9335152645210669  0.2433002164238312  1.0000
  C   C82       1.0  0.6154126625639874  0.43351526482106395  0.25669978387703896  1.0000
  C   C83       1.0  0.6154126622306726  0.06648473487893904  0.756699783625718  1.0000
  C   C84       1.0  0.3845873374393427  0.566484735715003  0.7433002161725102  1.0000
  C   C85       1.0  0.30070239399003906  0.12148633877081255  0.3096464078129739  1.0000
  C   C86       1.0  0.6992976063575533  0.6214863396068765  0.19035359210719158  1.0000
  C   C87       1.0  0.6992976060132909  0.8785136606291934  0.6903535922365753  1.0000
  C   C88       1.0  0.30070239364577683  0.3785136609291905  0.8096464079423576  1.0000
  N   N1        1.0  0.23918502231477273  0.44834640138882403  0.07864475374195459  1.0000
  N   N2        1.0  0.760814976702698  0.948346402224888  0.42135524652827244  1.0000
  N   N3        1.0  0.7608149776885574  0.551653598011182  0.9213552463075947  1.0000
  N   N4        1.0  0.23918502330063202  0.05165359831117901  0.5786447535212768  1.0000
  N   N5        1.0  0.2135309829466037  0.6261837742401518  0.9884404090532114  1.0000
  N   N6        1.0  0.7864690180425857  0.1261837734040878  0.51155959077566  1.0000
  N   N7        1.0  0.7864690170567263  0.37381622629591527  0.011559590996337842  1.0000
  N   N8        1.0  0.2135309819607444  0.8738162259959183  0.48844040927388926  1.0000
  O   O1        1.0  0.2754452555579796  0.2928211614090084  0.16716244807668845  1.0000
  O   O2        1.0  0.7245547447896127  0.7928211611090114  0.33283755184347713  1.0000
  O   O3        1.0  0.7245547444453504  0.7071788391270586  0.8328375519728607  1.0000
  O   O4        1.0  0.2754452552137173  0.2071788394270556  0.6671624482060722  1.0000
