data_image0
_chemical_formula_structural       H6C26F8
_chemical_formula_sum              "H6 C26 F8"
_cell_length_a       6.323245981653675
_cell_length_b       6.355371555107454
_cell_length_c       12.058096503233354
_cell_angle_alpha    88.76094925060428
_cell_angle_beta     89.26669290187932
_cell_angle_gamma    80.77940430499638

_space_group_name_H-M_alt    "P 1"
_space_group_IT_number       1

loop_
  _space_group_symop_operation_xyz
  'x, y, z'

loop_
  _atom_site_type_symbol
  _atom_site_label
  _atom_site_symmetry_multiplicity
  _atom_site_fract_x
  _atom_site_fract_y
  _atom_site_fract_z
  _atom_site_occupancy
  H   H1        1.0  0.12077246912561627  0.15206871888210072  0.04200551760460872  1.0000
  H   H2        1.0  0.8792275305288265  0.8479312808623423  0.9579944825714433  1.0000
  H   H3        1.0  0.2630750373256554  0.7775007142248284  0.09813434456763949  1.0000
  H   H4        1.0  0.7369249623287876  0.22249928551961454  0.9018656556084125  1.0000
  H   H5        1.0  0.6429518304064636  0.6269160826412026  0.05783512326507317  1.0000
  H   H6        1.0  0.3570481692479792  0.3730839171032403  0.9421648769109787  1.0000
  C   C1        1.0  0.31443680606557783  0.8236950204096941  0.7696936939509531  1.0000
  C   C2        1.0  0.6855631935888652  0.17630497933474895  0.23030630622509873  1.0000
  C   C3        1.0  0.6496919409858881  0.8530553323809296  0.6774706057528257  1.0000
  C   C4        1.0  0.3503080586694044  0.14694466736236014  0.3225293935939156  1.0000
  C   C5        1.0  0.5250219729440981  0.736760676378911  0.7435355225573957  1.0000
  C   C6        1.0  0.4749780267103448  0.26323932336553185  0.25646447761865626  1.0000
  C   C7        1.0  0.3494746066084129  0.1448621055058559  0.6615395717855233  1.0000
  C   C8        1.0  0.65052539304603  0.855137894238587  0.33846042839052864  1.0000
  C   C9        1.0  0.26579706192780445  0.34482282374575235  0.6144761867710913  1.0000
  C   C10       1.0  0.7342029374689644  0.6551771775930727  0.3855238133879185  1.0000
  C   C11       1.0  0.23016404771775892  0.027535898305469063  0.7301189159175122  1.0000
  C   C12       1.0  0.769835951936684  0.972464101438974  0.26988108425853974  1.0000
  C   C13       1.0  0.6866326387451792  0.17619242815240663  0.5664033925431893  1.0000
  C   C14       1.0  0.31336736091011336  0.8238075715908831  0.43359660680355216  1.0000
  C   C15       1.0  0.7389390409586423  0.3172288219981753  0.5058996624880544  1.0000
  C   C16       1.0  0.2610609602771849  0.6827711777475788  0.49410033767771716  1.0000
  C   C17       1.0  0.5680995805953966  0.055408288483850876  0.635156251626505  1.0000
  C   C18       1.0  0.43190041905904647  0.944591711260592  0.364843748549547  1.0000
  C   C19       1.0  0.24494309627637262  0.5109774289091802  0.5590629928571331  1.0000
  C   C20       1.0  0.7550569049594545  0.4890225708365741  0.4409370073086383  1.0000
  C   C21       1.0  0.36667666263031246  0.8749546512809595  0.05523731768772654  1.0000
  C   C22       1.0  0.6333233370241306  0.12504534846348336  0.9447626824883253  1.0000
  C   C23       1.0  0.28674456734030856  0.08510934174098662  0.02321434659806697  1.0000
  C   C24       1.0  0.7132554323141342  0.9148906580034564  0.9767856535779851  1.0000
  C   C25       1.0  0.5802221824281638  0.7901980381047604  0.032135969911334515  1.0000
  C   C26       1.0  0.4197778172262791  0.2098019616396825  0.9678640302647173  1.0000
  F   F1        1.0  0.027840231074631717  0.11074075228044004  0.7587511442650257  1.0000
  F   F2        1.0  0.972159768322987  0.8892592490572319  0.24124885506467364  1.0000
  F   F3        1.0  0.8527301749950429  0.7641900100558876  0.6545007662254436  1.0000
  F   F4        1.0  0.14726982465939992  0.23580998968855543  0.34549923395060816  1.0000
  F   F5        1.0  0.6076095487334373  0.5409703691033643  0.7815712461856064  1.0000
  F   F6        1.0  0.39239045092100555  0.4590296306410787  0.2184287539904455  1.0000
  F   F7        1.0  0.19351687418600638  0.7099814373135859  0.8318749072135477  1.0000
  F   F8        1.0  0.8064831254684365  0.2900185624308571  0.16812509296250416  1.0000
