data_image0
_chemical_formula_structural       H81C77N9O12F24P4
_chemical_formula_sum              "H81 C77 N9 O12 F24 P4"
_cell_length_a       13.393382486723603
_cell_length_b       13.48145450974738
_cell_length_c       13.969590098366808
_cell_angle_alpha    104.04293518314239
_cell_angle_beta     99.40532171445622
_cell_angle_gamma    118.55032706302663

_space_group_name_H-M_alt    "P 1"
_space_group_IT_number       1

loop_
  _space_group_symop_operation_xyz
  'x, y, z'

loop_
  _atom_site_type_symbol
  _atom_site_label
  _atom_site_symmetry_multiplicity
  _atom_site_fract_x
  _atom_site_fract_y
  _atom_site_fract_z
  _atom_site_occupancy
  H   H1        1.0  0.20329715807876078  0.5596767597454132  0.7117663689295558  1.0000
  H   H2        1.0  0.17660752956665038  0.6793411238129443  0.7488829315809262  1.0000
  H   H3        1.0  0.21069328549547398  0.7828875560892072  0.9332152150183688  1.0000
  H   H4        1.0  0.2743817025234728  0.8095880823365512  0.11875067987146472  1.0000
  H   H5        1.0  0.3426942450781004  0.7447432256112685  0.2533290632883935  1.0000
  H   H6        1.0  0.3734567838263273  0.628386510238078  0.21728990565849923  1.0000
  H   H7        1.0  0.3727373815680325  0.5464889150503905  0.03620085621469664  1.0000
  H   H8        1.0  0.31139659102582085  0.5217475114349899  0.8509104302478843  1.0000
  H   H9        1.0  0.14435186124752053  0.08952234310985865  0.29171526521032326  1.0000
  H   H10       1.0  0.08197409040688902  0.368327058971061  0.36260519537196145  1.0000
  H   H11       1.0  0.8723557858714523  0.22833594578334115  0.35104148189334167  1.0000
  H   H12       1.0  0.7674576243837824  0.8180277259422505  0.2278885809617816  1.0000
  H   H13       1.0  0.7036325921625651  0.10504266507696157  0.3485119860452993  1.0000
  H   H14       1.0  0.49004613150540044  0.9432787417075662  0.30361080491104225  1.0000
  H   H15       1.0  0.5508709315497846  0.669966195955679  0.18551404890351866  1.0000
  H   H16       1.0  0.296068627909217  0.286201067883172  0.33851039717296777  1.0000
  H   H17       1.0  0.2710360202167774  0.4068642605613934  0.3717257192392174  1.0000
  H   H18       1.0  0.24657181343515638  0.1665858164491287  0.15007023816505183  1.0000
  H   H19       1.0  0.1811209569336417  0.4542768529208055  0.23439473009164538  1.0000
  H   H20       1.0  0.18184276095099686  0.13785441865213843  0.9638438845530066  1.0000
  H   H21       1.0  0.11408823047351983  0.4241602569136684  0.04816900574415893  1.0000
  H   H22       1.0  0.10233527200194152  0.33379658850612665  0.8668134799768363  1.0000
  H   H23       1.0  0.12711164897649646  0.2139284908744136  0.8297080513555846  1.0000
  H   H24       1.0  0.9788145757153673  0.01781028855746997  0.7895908104784345  1.0000
  H   H25       1.0  0.7630948976463945  0.8603800379434595  0.7392933015595439  1.0000
  H   H26       1.0  0.9202372944007008  0.29766647318005846  0.88502080865912  1.0000
  H   H27       1.0  0.7022348191059234  0.15308171962761125  0.8352688018392485  1.0000
  H   H28       1.0  0.5921446734665616  0.738620415770089  0.7167620763187103  1.0000
  H   H29       1.0  0.3874734206029819  0.599125569683168  0.709346248512645  1.0000
  H   H30       1.0  0.32796503612001665  0.8788363447050156  0.8026032495002084  1.0000
  H   H31       1.0  0.5293964312246172  0.03241123474803833  0.813288675411162  1.0000
  H   H32       1.0  0.9389176648330142  0.937282025365052  0.2780379814813424  1.0000
  H   H33       1.0  0.6234378471457553  0.3617031825538375  0.7491662167317965  1.0000
  H   H34       1.0  0.5988339885263991  0.27266528277551294  0.5610292660273289  1.0000
  H   H35       1.0  0.5587491611014217  0.37031803061344976  0.4399842917908308  1.0000
  H   H36       1.0  0.48288997207446904  0.6947440001503482  0.41854109789658916  1.0000
  H   H37       1.0  0.6198841194299126  0.719313436323784  0.39753078427449684  1.0000
  H   H38       1.0  0.4704774640054933  0.8592248951433353  0.5107042985432805  1.0000
  H   H39       1.0  0.8160745264467354  0.9208678367407799  0.5090446448260448  1.0000
  H   H40       1.0  0.9069731324356467  0.1433710111467053  0.5790174982405563  1.0000
  H   H41       1.0  0.9329563007523076  0.3527343705603166  0.5925565439028433  1.0000
  H   H42       1.0  0.9587440499737034  0.306162861591166  0.6977116425022218  1.0000
  H   H43       1.0  0.019302055577191873  0.5279355414036686  0.7513700872779155  1.0000
  H   H44       1.0  0.8638523720249865  0.4732625197396999  0.7047882979017568  1.0000
  H   H45       1.0  0.40183976651544767  0.1705686358973812  0.6125930630350769  1.0000
  H   H46       1.0  0.2965180036100938  0.040277504880658795  0.6326960885675418  1.0000
  H   H47       1.0  0.4210540953622883  0.9538716218916202  0.6189385514668864  1.0000
  H   H48       1.0  0.3776906069985092  0.9777556633597919  0.5032503926023723  1.0000
  H   H49       1.0  0.3067314168007656  0.11835294279129265  0.7905912448556431  1.0000
  H   H50       1.0  0.40587355778429635  0.2730274447416957  0.8058246826749441  1.0000
  H   H51       1.0  0.5540854139958629  0.30468286768668373  0.9587572964531598  1.0000
  H   H52       1.0  0.40913475841485464  0.24369493788899502  0.9738438779824738  1.0000
  H   H53       1.0  0.3934968689777838  0.0880066804286485  0.058147776240249666  1.0000
  H   H54       1.0  0.5465533228897319  0.21192226031333547  0.10023470401012759  1.0000
  H   H55       1.0  0.5232103565540153  0.022836916081532422  0.12418515772825339  1.0000
  H   H56       1.0  0.4607776307573465  0.9471085780565763  0.9854636879409244  1.0000
  H   H57       1.0  0.8662919202045274  0.5603683674699552  0.8622897021082974  1.0000
  H   H58       1.0  0.9995003777181427  0.598500144761982  0.9551233361182766  1.0000
  H   H59       1.0  0.9603684720063133  0.38342821845062436  0.19304346522532717  1.0000
  H   H60       1.0  0.8152695363683398  0.2697733862695364  0.18716185887970602  1.0000
  H   H61       1.0  0.7243777335706567  0.28593321044537606  0.023897551842141478  1.0000
  H   H62       1.0  0.7999873581800685  0.42228875714607456  0.13775240342288586  1.0000
  H   H63       1.0  0.8152034271991856  0.5285918714303225  0.014511630609499854  1.0000
  H   H64       1.0  0.7429309620947063  0.38499500636058187  0.9115979892797101  1.0000
  H   H65       1.0  0.546085014333505  0.8527799485868126  0.007913113210476285  1.0000
  H   H66       1.0  0.9827347072240957  0.10182166728420732  0.06128761602518666  1.0000
  H   H67       1.0  0.8810841526076514  0.8783638806465788  0.019392288274960617  1.0000
  H   H68       1.0  0.6982787739168452  0.6923719794886884  0.027462514214670854  1.0000
  H   H69       1.0  0.5552690057333685  0.675755878299999  0.9896262976851561  1.0000
  H   H70       1.0  0.8412034490361207  0.5444928121940726  0.5795520240509638  1.0000
  H   H71       1.0  0.8415569193477462  0.5954522179401666  0.4735385370456207  1.0000
  H   H72       1.0  0.9690007711651004  0.5964910202526886  0.5359397271723416  1.0000
  H   H73       1.0  0.11205809356030294  0.9389001716963215  0.4506888148000555  1.0000
  H   H74       1.0  0.09945637485715164  0.8799189775271106  0.5529016945680975  1.0000
  H   H75       1.0  0.06886955750204807  0.9954697108699482  0.5546457567508136  1.0000
  H   H76       1.0  0.13007027973522844  0.7737868694703437  0.24462537255844435  1.0000
  H   H77       1.0  0.02421320581473314  0.6196023302610172  0.15521690593403134  1.0000
  H   H78       1.0  0.02512502516089771  0.6660233842248134  0.2863789294564404  1.0000
  H   H79       1.0  0.6795683521341027  0.523773950370257  0.31294797360088855  1.0000
  H   H80       1.0  0.6683936834594565  0.4140550471283842  0.20276666178523428  1.0000
  H   H81       1.0  0.5610316921041346  0.36658521660078325  0.2697645636173265  1.0000
  C   C1        1.0  0.8841247208430923  0.06755562995731308  0.31075899254887523  1.0000
  C   C2        1.0  0.23756963470633763  0.6496394815777172  0.7690065969217411  1.0000
  C   C3        1.0  0.24672477104044221  0.7314160173410972  0.9555171691263795  1.0000
  C   C4        1.0  0.2820526539641435  0.745937910665741  0.06026798456825181  1.0000
  C   C5        1.0  0.3830876870140524  0.7092019308209019  0.20460241405408455  1.0000
  C   C6        1.0  0.33092182486447175  0.6825093028883045  0.09037959576609216  1.0000
  C   C7        1.0  0.3385773893548136  0.5995466922515573  0.013966308826410954  1.0000
  C   C8        1.0  0.30356547804348283  0.5852593187715444  0.9094580093577224  1.0000
  C   C9        1.0  0.2599394258709663  0.6531403646761144  0.8798685113683901  1.0000
  C   C10       1.0  0.08042136333413738  0.11474756392239925  0.30463589414386166  1.0000
  C   C11       1.0  0.04469068882698309  0.27190193777365346  0.3439410830848746  1.0000
  C   C12       1.0  0.9280030216618022  0.19169480462640484  0.3373972085682324  1.0000
  C   C13       1.0  0.7112492645183107  0.8521030562948977  0.24694856594861275  1.0000
  C   C14       1.0  0.7568221310026777  0.9769233546509762  0.29183471517868437  1.0000
  C   C15       1.0  0.6759928220636783  0.010597719735797881  0.31313424705147663  1.0000
  C   C16       1.0  0.5559354047736386  0.9220773626898003  0.2885095614406859  1.0000
  C   C17       1.0  0.5905782033158766  0.7675028599639584  0.22228281317195703  1.0000
  C   C18       1.0  0.23619412689118066  0.3161618083409435  0.31607189672215014  1.0000
  C   C19       1.0  0.218304035363547  0.22371134743020413  0.12800852445193772  1.0000
  C   C20       1.0  0.21565044711596684  0.3106495411369479  0.20461939936890902  1.0000
  C   C21       1.0  0.1818715142052983  0.3852328574394411  0.1751865175352191  1.0000
  C   C22       1.0  0.18213530392392285  0.2078547179739446  0.02298764264749313  1.0000
  C   C23       1.0  0.14193278468374737  0.2780231135269695  0.993215522073833  1.0000
  C   C24       1.0  0.1446446873458393  0.3685676456467145  0.07030849096816144  1.0000
  C   C25       1.0  0.08893827535695628  0.2518480053197088  0.8794136980325674  1.0000
  C   C26       1.0  0.9130797676698296  0.04152188832977056  0.7986341135499376  1.0000
  C   C27       1.0  0.7920294669397188  0.9554285876533354  0.7711247831435959  1.0000
  C   C28       1.0  0.8809644983588191  0.20013614265143093  0.8531276574878486  1.0000
  C   C29       1.0  0.7588511870623532  0.11723138653769753  0.8247695981101312  1.0000
  C   C30       1.0  0.7115769522865909  0.9918519475880457  0.7864271460049705  1.0000
  C   C31       1.0  0.5843026329665684  0.9021271867862245  0.7689094729615054  1.0000
  C   C32       1.0  0.5399011109192527  0.7774559819053949  0.7367842254271658  1.0000
  C   C33       1.0  0.4247874229455529  0.6962549550457122  0.7325071276971921  1.0000
  C   C34       1.0  0.3912522661869244  0.8541118115953458  0.7853087916463254  1.0000
  C   C35       1.0  0.5054454715749314  0.9387162908614627  0.7901447754428963  1.0000
  C   C36       1.0  0.9649185304863358  0.03131212701201672  0.2977404049362356  1.0000
  C   C37       1.0  0.6228709673997029  0.5579782623326521  0.8421831412272275  1.0000
  C   C38       1.0  0.6122648741803367  0.5107579831256627  0.7296882954143494  1.0000
  C   C39       1.0  0.6135965937889922  0.4049618342558673  0.6950325933409678  1.0000
  C   C40       1.0  0.5978419440908268  0.35451395783527917  0.590029442680917  1.0000
  C   C41       1.0  0.577514930818292  0.40943097831158365  0.5234563195583903  1.0000
  C   C42       1.0  0.5801693857495217  0.5164989540457395  0.5656691346472087  1.0000
  C   C43       1.0  0.5571075882571778  0.5716673836716049  0.4904615237262596  1.0000
  C   C44       1.0  0.5804540339292843  0.7417909118520055  0.45568924864226196  1.0000
  C   C45       1.0  0.6379028039443013  0.8757840479229025  0.5057311041404728  1.0000
  C   C46       1.0  0.5660677059067577  0.9219729370629655  0.5270876283023384  1.0000
  C   C47       1.0  0.7603999262858422  0.9562766560625523  0.526306872344244  1.0000
  C   C48       1.0  0.6164933366846929  0.046927673999346095  0.5696441512475381  1.0000
  C   C49       1.0  0.8119327286006935  0.08217416149078809  0.566487576635616  1.0000
  C   C50       1.0  0.7408322390640046  0.12810208812735985  0.5879829181466818  1.0000
  C   C51       1.0  0.9059914103542719  0.3368769237378532  0.6605788241951692  1.0000
  C   C52       1.0  0.9283205432345599  0.4514098315632808  0.7371456937060157  1.0000
  C   C53       1.0  0.39292667898642486  0.10051203599700334  0.6442363469649376  1.0000
  C   C54       1.0  0.4321730245625335  0.02337126478718239  0.5864714159353852  1.0000
  C   C55       1.0  0.4019029513288035  0.19243105032214733  0.8153409959255947  1.0000
  C   C56       1.0  0.4617852597284038  0.22306840676234443  0.9286730673662436  1.0000
  C   C57       1.0  0.47901692712777055  0.12009381850851908  0.04138489646601542  1.0000
  C   C58       1.0  0.5213784922002986  0.03599532200766347  0.04958924052251186  1.0000
  C   C59       1.0  0.9080279977536397  0.5226962009125284  0.9038060488475657  1.0000
  C   C60       1.0  0.8697414933220787  0.3098434864914445  0.1403745696545941  1.0000
  C   C61       1.0  0.8132059631437034  0.35996407172419853  0.08092343766481255  1.0000
  C   C62       1.0  0.8315131983345817  0.46386695275572626  0.9655607308009299  1.0000
  C   C63       1.0  0.6422560598201594  0.9078632070295939  0.02060460050880052  1.0000
  C   C64       1.0  0.7068772818129012  0.8514321593336333  0.011189089137673547  1.0000
  C   C65       1.0  0.6987310350139313  0.03272017954975389  0.04222872588151181  1.0000
  C   C66       1.0  0.8235698601878193  0.10306989076798725  0.05797259571679646  1.0000
  C   C67       1.0  0.8871171116677244  0.04592418091142609  0.04969330848897117  1.0000
  C   C68       1.0  0.8299967599641098  0.9213612292780995  0.026113183403673274  1.0000
  C   C69       1.0  0.6452076333387143  0.7170174143610375  0.98174448734855  1.0000
  C   C70       1.0  0.8704945553781119  0.5464144157912503  0.5108595144054334  1.0000
  C   C71       1.0  0.8198744979847805  0.42435149799325034  0.4385893388734421  1.0000
  C   C72       1.0  0.060915350720179104  0.913920262060014  0.5040542943166787  1.0000
  C   C73       1.0  0.9361327956075702  0.8198367091002593  0.44610971808807304  1.0000
  C   C74       1.0  0.03783896817479389  0.6950200418619579  0.22009144399182484  1.0000
  C   C75       1.0  0.9528959991152854  0.7274261098088795  0.18873996070912527  1.0000
  C   C76       1.0  0.6166846212623335  0.43971029690781516  0.24457859730423273  1.0000
  C   C77       1.0  0.5416788250640737  0.4618305259027457  0.17765500058958805  1.0000
  N   N1        1.0  0.35378663746404504  0.7355489457504488  0.7592595576505276  1.0000
  N   N2        1.0  0.9562015238043281  0.1615352363348107  0.8409389426290171  1.0000
  N   N3        1.0  0.11773804335020475  0.23232555009290096  0.32495592416117397  1.0000
  N   N4        1.0  0.5146998121672366  0.8029905939254963  0.24219884621550516  1.0000
  N   N5        1.0  0.5992177843323222  0.568443728265426  0.6672631154276867  1.0000
  N   N6        1.0  0.7792409135693547  0.3259992382130171  0.3802368027408205  1.0000
  N   N7        1.0  0.8354598568804226  0.7434361750214503  0.40009462023013326  1.0000
  N   N8        1.0  0.8835865026245223  0.753207452230298  0.16465194861726232  1.0000
  N   N9        1.0  0.48258315925776296  0.48141136335073714  0.12416973877985563  1.0000
  O   O1        1.0  0.5054181198351074  0.5121096444703812  0.3964680551625608  1.0000
  O   O2        1.0  0.5994347768187971  0.6908803986470743  0.5339466037218926  1.0000
  O   O3        1.0  0.624685793131393  0.5037464511773285  0.9005651152248805  1.0000
  O   O4        1.0  0.6302701669122684  0.6648203719349183  0.8713234341044085  1.0000
  O   O5        1.0  0.5570783167959129  0.1007955251768855  0.5982680396510484  1.0000
  O   O6        1.0  0.4608502326906126  0.1538460349685079  0.7528880446177609  1.0000
  O   O7        1.0  0.46423063287180927  0.1211184772513605  0.938651354595402  1.0000
  O   O8        1.0  0.8856064086681628  0.22347225534187753  0.0715270004738072  1.0000
  O   O9        1.0  0.6408458039320699  0.09286111703786681  0.043358984769037476  1.0000
  O   O10       1.0  0.7797982285513312  0.24757641690618093  0.6282513091966008  1.0000
  O   O11       1.0  0.889694257272339  0.4248621612955455  0.028877887035261486  1.0000
  O   O12       1.0  0.913974200133416  0.43209966704444397  0.8310869313142962  1.0000
  F   F1        1.0  0.230337498962722  0.40361563162992625  0.5727150341652728  1.0000
  F   F2        1.0  0.3426763684117124  0.405108183749166  0.7192751471841209  1.0000
  F   F3        1.0  0.2784123348853776  0.2578179343679387  0.5559930659980888  1.0000
  F   F4        1.0  0.19311582453810927  0.20437362823825164  0.6820348068792079  1.0000
  F   F5        1.0  0.08128062546054093  0.2025742210325258  0.5362797002639105  1.0000
  F   F6        1.0  0.14621451877489944  0.35098914724454394  0.6982777963888189  1.0000
  F   F7        1.0  0.08403808361349895  0.5305931619811447  0.3439746191751405  1.0000
  F   F8        1.0  0.12777222031761  0.5622964146166172  0.520125633611935  1.0000
  F   F9        1.0  0.11957644487526901  0.7069079144364868  0.4626010283997953  1.0000
  F   F10       1.0  0.26815661150565284  0.5721431008758794  0.4383103948487599  1.0000
  F   F11       1.0  0.25915621972449754  0.7154627308606858  0.38091525495677075  1.0000
  F   F12       1.0  0.3027234032088111  0.7472501995218612  0.557202859655762  1.0000
  F   F13       1.0  0.014178601948470941  0.7180451790000352  0.7924619650955511  1.0000
  F   F14       1.0  0.12825039402752245  0.8236795574239217  0.7023847808869356  1.0000
  F   F15       1.0  0.18325173121918584  0.9132613790696837  0.8819307311746436  1.0000
  F   F16       1.0  0.107510261972199  0.9844417934052765  0.773815533758514  1.0000
  F   F17       1.0  0.9930885135799364  0.878587672441109  0.8645741282585423  1.0000
  F   F18       1.0  0.93799266734725  0.7903347814072728  0.684734091076743  1.0000
  F   F19       1.0  0.30463343734341325  0.08758112426464584  0.4013846460784148  1.0000
  F   F20       1.0  0.3901930797855868  0.18810098939283565  0.2950178715158268  1.0000
  F   F21       1.0  0.39969413066116666  0.02489428512717767  0.20829190939563627  1.0000
  F   F22       1.0  0.31678220979930755  0.925188933526724  0.31473461147375925  1.0000
  F   F23       1.0  0.48751043338943817  0.11963963911774184  0.3872911054283503  1.0000
  F   F24       1.0  0.21818478147208215  0.9924934556895306  0.2219909725049459  1.0000
  P   P1        1.0  0.21281203864134252  0.30355728320946834  0.6266677326134491  1.0000
  P   P2        1.0  0.19382547466422914  0.639775162841855  0.45127042559157954  1.0000
  P   P3        1.0  0.05976274647956596  0.8506488898065541  0.783474374579021  1.0000
  P   P4        1.0  0.3534093859178808  0.057517566909388786  0.30580079022313383  1.0000
