data_image0
_chemical_formula_structural       H64C96N16O32Cl8
_chemical_formula_sum              "H64 C96 N16 O32 Cl8"
_cell_length_a       12.068846696485995
_cell_length_b       7.974125477543327
_cell_length_c       24.46483174447311
_cell_angle_alpha    90.0
_cell_angle_beta     100.9599193191765
_cell_angle_gamma    90.0

_space_group_name_H-M_alt    "P 1"
_space_group_IT_number       1

loop_
  _space_group_symop_operation_xyz
  'x, y, z'

loop_
  _atom_site_type_symbol
  _atom_site_label
  _atom_site_symmetry_multiplicity
  _atom_site_fract_x
  _atom_site_fract_y
  _atom_site_fract_z
  _atom_site_occupancy
  H   H1        1.0  0.5220519882687398  0.05461811470443263  0.8092456463025631  1.0000
  H   H2        1.0  0.9779480115157474  0.5546181148584729  0.6907543536520593  1.0000
  H   H3        1.0  0.4779480118636691  0.945381885603648  0.19075435366690346  1.0000
  H   H4        1.0  0.02205198861666138  0.44538188544960766  0.3092456463174072  1.0000
  H   H5        1.0  0.8099091257661035  0.3823017468918975  0.825604689980257  1.0000
  H   H6        1.0  0.6900908740183836  0.8823017470459378  0.6743953099743655  1.0000
  H   H7        1.0  0.19009087353805332  0.6176982521621271  0.1743953099900549  1.0000
  H   H8        1.0  0.3099091261140251  0.11769825326214282  0.32560468999510106  1.0000
  H   H9        1.0  0.7712172815364261  0.42139701832673376  0.7219971471990047  1.0000
  H   H10       1.0  0.7287827182480612  0.9213970184807742  0.778002852755618  1.0000
  H   H11       1.0  0.22878271776773068  0.5786029819813469  0.2780028527713073  1.0000
  H   H12       1.0  0.2712172818843477  0.07860298182730652  0.22199714721384864  1.0000
  H   H13       1.0  0.5658888245240731  0.2336486208107674  0.5680585544662615  1.0000
  H   H14       1.0  0.9341111752604141  0.7336486209648077  0.9319414454883611  1.0000
  H   H15       1.0  0.4341111756083358  0.7663513794973132  0.43194144550320507  1.0000
  H   H16       1.0  0.06588882487199471  0.26635137934327296  0.06805855448110557  1.0000
  H   H17       1.0  0.7257846668248081  0.5212170615705511  0.9430295971317086  1.0000
  H   H18       1.0  0.774215332959679  0.02121706141651077  0.5569704028229139  1.0000
  H   H19       1.0  0.2742153324793486  0.47878293873752953  0.05697040283860331  1.0000
  H   H20       1.0  0.22578466717272982  0.9787829376375139  0.4430295971465527  1.0000
  H   H21       1.0  0.4572275462702136  0.8715412065651482  0.948997951827971  1.0000
  H   H22       1.0  0.04277245350818906  0.371541206411108  0.5510020481314037  1.0000
  H   H23       1.0  0.5427724538621952  0.12845879374293234  0.05100204814149554  1.0000
  H   H24       1.0  0.9572275457959677  0.6284587938969726  0.4489979518389081  1.0000
  H   H25       1.0  0.47303076831910196  0.8126288165704114  0.050461901257126046  1.0000
  H   H26       1.0  0.026969231332976414  0.3126288164163711  0.44953809872802997  1.0000
  H   H27       1.0  0.5269692318133069  0.18737118373766923  0.9495380987123406  1.0000
  H   H28       1.0  0.9730307679711804  0.6873711838917096  0.550461901242282  1.0000
  H   H29       1.0  0.6912600249742885  0.5696453213323942  0.19231039300879427  1.0000
  H   H30       1.0  0.8087399748460146  0.06964532117835394  0.3076896073879525  1.0000
  H   H31       1.0  0.30873997449200835  0.43035467897568636  0.8076896073778608  1.0000
  H   H32       1.0  0.19126002544853446  0.9303546791297267  0.6923103929978571  1.0000
  H   H33       1.0  0.6819649962025992  0.4744776703922192  0.5455247992490677  1.0000
  H   H34       1.0  0.8180350035818882  0.9744776692922035  0.9544752007055549  1.0000
  H   H35       1.0  0.3180350039298097  0.5255223299158615  0.45447520072039893  1.0000
  H   H36       1.0  0.18196499572226868  0.02552232976182111  0.04552479926475702  1.0000
  H   H37       1.0  0.7228732268467438  0.5713389164530169  0.4549033347266757  1.0000
  H   H38       1.0  0.7771267736396712  0.07133891629897658  0.04509666525288263  1.0000
  H   H39       1.0  0.27712677328566504  0.4286610838550637  0.5450966652427909  1.0000
  H   H40       1.0  0.2228732264927377  0.9286610840091041  0.954903334716584  1.0000
  H   H41       1.0  0.49764624575088495  0.18123080632099922  0.3762566625451878  1.0000
  H   H42       1.0  0.002353753901193466  0.6812308064750395  0.12374333743996821  1.0000
  H   H43       1.0  0.5023537545436642  0.8187691939870814  0.623743337840622  1.0000
  H   H44       1.0  0.9976462454029633  0.3187691938330411  0.8762566625303437  1.0000
  H   H45       1.0  0.4629023887174837  0.1080943436904071  0.4697116076009006  1.0000
  H   H46       1.0  0.03709761093459467  0.6080943438444475  0.03028839238425541  1.0000
  H   H47       1.0  0.5370976114149252  0.8919056566176735  0.5302883923685661  1.0000
  H   H48       1.0  0.962902388369562  0.3919056564636332  0.9697116075860566  1.0000
  H   H49       1.0  0.5138028440789076  0.445247202341971  0.21380359200508214  1.0000
  H   H50       1.0  0.9861971564075074  0.9452472024960114  0.2861964079744762  1.0000
  H   H51       1.0  0.4861971560535012  0.5547527967120536  0.7861964079643844  1.0000
  H   H52       1.0  0.013802843724901558  0.05475279781206926  0.7138035919949905  1.0000
  H   H53       1.0  0.47115152773827346  0.3565527603004228  0.3052610530754778  1.0000
  H   H54       1.0  0.028848471913805015  0.856552760454463  0.19473894690967825  1.0000
  H   H55       1.0  0.5288484723941355  0.6434472387536018  0.6947389468939889  1.0000
  H   H56       1.0  0.971151528218604  0.14344723985361754  0.8052610530597883  1.0000
  H   H57       1.0  0.8043104238658982  0.5334474898820512  0.38117628539600207  1.0000
  H   H58       1.0  0.6956895766205169  0.03344748972801084  0.11882371458355635  1.0000
  H   H59       1.0  0.1956895762665107  0.46655251042602947  0.6188237145734646  1.0000
  H   H60       1.0  0.304310423511892  0.9665525105800697  0.8811762853859102  1.0000
  H   H61       1.0  0.8314421058016057  0.6150113217820697  0.28686883857797385  1.0000
  H   H62       1.0  0.6685578946848093  0.11501132162802952  0.21313116140158453  1.0000
  H   H63       1.0  0.16855789433080315  0.38498867852601076  0.7131311613914927  1.0000
  H   H64       1.0  0.33144210544759956  0.884988678680051  0.7868688385678821  1.0000
  C   C1        1.0  0.6259841123224312  0.2628108657058204  0.7071497482103761  1.0000
  C   C2        1.0  0.8740158882903082  0.7628108658598607  0.7928502517434012  1.0000
  C   C3        1.0  0.3740158878099776  0.7371891346022602  0.29285025175909046  1.0000
  C   C4        1.0  0.1259841118421008  0.23718913444821993  0.2071497482260655  1.0000
  C   C5        1.0  0.5547621468302898  0.16005229333225843  0.7321713581221317  1.0000
  C   C6        1.0  0.9452378529541974  0.6600522934862987  0.7678286418324907  1.0000
  C   C7        1.0  0.44523785330211907  0.8399477069758221  0.2678286418473348  1.0000
  C   C8        1.0  0.05476214717821147  0.3399477068217818  0.23217135813697581  1.0000
  C   C9        1.0  0.5764212732922666  0.13438685446045232  0.789712152912488  1.0000
  C   C10       1.0  0.9235787274826129  0.6343868546144926  0.7102878474576324  1.0000
  C   C11       1.0  0.4235787270022824  0.8656131445935723  0.21028784747332177  1.0000
  C   C12       1.0  0.07642127264979602  0.36561314569358794  0.28971215251183424  1.0000
  C   C13       1.0  0.6689271813001422  0.21373657773505225  0.8219549591024503  1.0000
  C   C14       1.0  0.8310728184843452  0.7137365778890926  0.6780450408521724  1.0000
  C   C15       1.0  0.3310728180040146  0.7862634225730284  0.1780450408678617  1.0000
  C   C16       1.0  0.16892718164806375  0.28626342241898806  0.32195495911729427  1.0000
  C   C17       1.0  0.7400576457045127  0.31889542209504107  0.798980477633515  1.0000
  C   C18       1.0  0.7599423540799743  0.8188954222490814  0.7010195223211076  1.0000
  C   C19       1.0  0.2599423544278961  0.6811045782130396  0.2010195223359517  1.0000
  C   C20       1.0  0.2400576460524344  0.18110457805899924  0.29898047764835894  1.0000
  C   C21       1.0  0.7177002292104376  0.3409369814478479  0.7417639127335556  1.0000
  C   C22       1.0  0.7822997714023017  0.8409369816018881  0.7582360872202217  1.0000
  C   C23       1.0  0.28229977092197117  0.6590630188602328  0.2582360872359111  1.0000
  C   C24       1.0  0.21770022873010722  0.15906301870619247  0.24176391274924489  1.0000
  C   C25       1.0  0.6108360526634345  0.30671536043517333  0.6462994842617522  1.0000
  C   C26       1.0  0.8891639479493049  0.8067153605892136  0.853700515692025  1.0000
  C   C27       1.0  0.38916394746897437  0.6932846386188513  0.3537005157077144  1.0000
  C   C28       1.0  0.11083605218310402  0.19328463846481095  0.1462994842774416  1.0000
  C   C29       1.0  0.6105023432217299  0.6392715896377494  0.05487259908510882  1.0000
  C   C30       1.0  0.889497656436433  0.1392715894837091  0.44512740089529484  1.0000
  C   C31       1.0  0.38949765691067906  0.3607284106703312  0.945127400884358  1.0000
  C   C32       1.0  0.11050234286772377  0.8607284108243715  0.5548725990750171  1.0000
  C   C33       1.0  0.6818145809811434  0.5571978021305044  0.024089985475894502  1.0000
  C   C34       1.0  0.8181854186770194  0.05719780197646405  0.47591001450450926  1.0000
  C   C35       1.0  0.3181854183230132  0.44280219817757627  0.9759100144944175  1.0000
  C   C36       1.0  0.1818145814553895  0.9428021983316166  0.5240899854649574  1.0000
  C   C37       1.0  0.6733491602900661  0.5883077301970523  0.9672915658196373  1.0000
  C   C38       1.0  0.8266508394944212  0.08830773004301197  0.5327084341349853  1.0000
  C   C39       1.0  0.3266508398423427  0.4116922701110284  0.0327084341498293  1.0000
  C   C40       1.0  0.17334915980973564  0.9116922702650686  0.4672915658353267  1.0000
  C   C41       1.0  0.5921744928015463  0.7011112699122464  0.9415124071692154  1.0000
  C   C42       1.0  0.907825506982941  0.20111126975820612  0.5584875927854072  1.0000
  C   C43       1.0  0.40782550650261046  0.2988887291417782  0.058487592801096576  1.0000
  C   C44       1.0  0.09217449314946792  0.7988887292958186  0.44151240718405943  1.0000
  C   C45       1.0  0.5200939742108036  0.7848312717958477  0.9704968856703692  1.0000
  C   C46       1.0  0.9799060255736837  0.28483127289586335  0.5295031142842533  1.0000
  C   C47       1.0  0.4799060250933533  0.21516872725817693  0.0295031142999427  1.0000
  C   C48       1.0  0.020093974558725185  0.7151687274122173  0.4704968856852133  1.0000
  C   C49       1.0  0.5300489397652465  0.7523910298246748  0.026885228473603286  1.0000
  C   C50       1.0  0.9699510598929165  0.2523910296706345  0.47311477150680037  1.0000
  C   C51       1.0  0.46995106036716244  0.24760897048340583  0.9731147714958633  1.0000
  C   C52       1.0  0.030048940239492353  0.7476089693833902  0.5268852284626662  1.0000
  C   C53       1.0  0.6071380314326139  0.6092130734186337  0.11529520259522877  1.0000
  C   C54       1.0  0.892861969053801  0.10921307326459338  0.38470479738432956  1.0000
  C   C55       1.0  0.39286196869979495  0.39078692688944694  0.8847047973742379  1.0000
  C   C56       1.0  0.10713803107860778  0.8907869270434873  0.615295202585137  1.0000
  C   C57       1.0  0.6434903383379541  0.41403661997768726  0.5066463210386666  1.0000
  C   C58       1.0  0.8565096614465331  0.9140366201317275  0.993353678915956  1.0000
  C   C59       1.0  0.35650966179445476  0.5859633803303934  0.49335367893080007  1.0000
  C   C60       1.0  0.14349033868587574  0.08596338017635308  0.006646321053510527  1.0000
  C   C61       1.0  0.6661618161055627  0.4656859928349207  0.45573796731460453  1.0000
  C   C62       1.0  0.8338381835526003  0.965685992988961  0.0442620326657992  1.0000
  C   C63       1.0  0.33383818319859415  0.5343140074731599  0.5442620326557075  1.0000
  C   C64       1.0  0.16616181657980864  0.03431400731911963  0.9557379673036674  1.0000
  C   C65       1.0  0.6136502108651704  0.3841400951899376  0.40680681273028174  1.0000
  C   C66       1.0  0.8863497887929926  0.8841400953439779  0.0931931872501219  1.0000
  C   C67       1.0  0.3863497892672385  0.615859905118143  0.5931931872391848  1.0000
  C   C68       1.0  0.11365021051116418  0.11585990496410271  0.90680681272019  1.0000
  C   C69       1.0  0.539154956913361  0.2528964455950954  0.4121361296647077  1.0000
  C   C70       1.0  0.9608450427448019  0.7528964457491357  0.08786387031569594  1.0000
  C   C71       1.0  0.4608450432190479  0.7471035547129852  0.5878638703047588  1.0000
  C   C72       1.0  0.03915495738760698  0.2471035545589449  0.9121361296537708  1.0000
  C   C73       1.0  0.5208080835491107  0.20902301007100546  0.46458352120683094  1.0000
  C   C74       1.0  0.9791919161090523  0.7090230102250458  0.03541647877357279  1.0000
  C   C75       1.0  0.4791919157550462  0.7909769889830192  0.5354164787634811  1.0000
  C   C76       1.0  0.02080808402335654  0.2909769900830348  0.9645835211958939  1.0000
  C   C77       1.0  0.5758162956948005  0.4593182011387655  0.25214694323434533  1.0000
  C   C78       1.0  0.9241837047916145  0.9593182000387498  0.24785305674521307  1.0000
  C   C79       1.0  0.4241837044376084  0.5406817991693151  0.7478530567351214  1.0000
  C   C80       1.0  0.07581629534079438  0.04068179901527482  0.7521469432242536  1.0000
  C   C81       1.0  0.553426739091518  0.4093866743373255  0.3033033820262396  1.0000
  C   C82       1.0  0.9465732605666449  0.9093866744913658  0.1966966179541641  1.0000
  C   C83       1.0  0.44657326037477885  0.5906133259707551  0.6966966183604154  1.0000
  C   C84       1.0  0.053426739565763916  0.0906133258167148  0.8033033820153025  1.0000
  C   C85       1.0  0.6349622307419637  0.43482402926373576  0.3517289934591021  1.0000
  C   C86       1.0  0.8650377689161993  0.934824029417776  0.1482710065213016  1.0000
  C   C87       1.0  0.3650377693904452  0.5651759710443449  0.6482710065103645  1.0000
  C   C88       1.0  0.1349622312162096  0.06517597089030458  0.851728993448165  1.0000
  C   C89       1.0  0.736772766426666  0.5110125632554494  0.34561706805334386  1.0000
  C   C90       1.0  0.763227233231497  0.011012563101409118  0.15438293192705985  1.0000
  C   C91       1.0  0.2632272328774909  0.48898743579857523  0.6543829319169682  1.0000
  C   C92       1.0  0.23677276690091187  0.9889874359526154  0.8456170680424068  1.0000
  C   C93       1.0  0.7532023176612387  0.5562418853943724  0.29293273323166613  1.0000
  C   C94       1.0  0.7467976828251763  0.05624188524033208  0.2070672667478922  1.0000
  C   C95       1.0  0.2467976824711701  0.4437581149137082  0.7070672667378004  1.0000
  C   C96       1.0  0.25320231730723264  0.9437581150677485  0.7929327332215744  1.0000
  N   N1        1.0  0.6917864578305358  0.18636046224567648  0.882097310170935  1.0000
  N   N2        1.0  0.8082135427822036  0.6863604623997168  0.6179026897828424  1.0000
  N   N3        1.0  0.3082135423018731  0.8136395368083481  0.11790268979853173  1.0000
  N   N4        1.0  0.19178645735020525  0.3136395366543078  0.3820973101866242  1.0000
  N   N5        1.0  0.5784396210866226  0.7266329588514451  0.8812285657454159  1.0000
  N   N6        1.0  0.9215603786978647  0.2266329586974048  0.618771434209207  1.0000
  N   N7        1.0  0.4215603790457863  0.27336704145663554  0.11877143422405094  1.0000
  N   N8        1.0  0.07843962143454417  0.7733670403566199  0.3812285657602597  1.0000
  N   N9        1.0  0.5723303467682908  0.28717764931703854  0.5111259834745171  1.0000
  N   N10       1.0  0.9276696530161965  0.7871776494710788  0.9888740164801055  1.0000
  N   N11       1.0  0.42766965336411805  0.7128223509910421  0.4888740164949495  1.0000
  N   N12       1.0  0.07233034711621236  0.21282235083700177  0.011125983489361068  1.0000
  N   N13       1.0  0.6742476361500264  0.5304591032474153  0.24705306617968306  1.0000
  N   N14       1.0  0.8257523635081366  0.03045910309337496  0.2529469338007206  1.0000
  N   N15       1.0  0.32575236398238255  0.4695408970606654  0.7529469337897835  1.0000
  N   N16       1.0  0.17424763662427228  0.9695408972147057  0.747053066168746  1.0000
  O   O1        1.0  0.6406539480634181  0.44705061138544533  0.6331058679001763  1.0000
  O   O2        1.0  0.8593460517210691  0.9470506102854296  0.8668941320544463  1.0000
  O   O3        1.0  0.3593460520689908  0.5529493889226353  0.36689413206929034  1.0000
  O   O4        1.0  0.14065394841133977  0.052949388768595014  0.13310586791502033  1.0000
  O   O5        1.0  0.567792453115374  0.1890593299849173  0.6107647326020037  1.0000
  O   O6        1.0  0.9322075466691132  0.6890593301389577  0.8892352673526189  1.0000
  O   O7        1.0  0.4322075470170349  0.8109406690691073  0.38923526736746294  1.0000
  O   O8        1.0  0.0677924534632956  0.310940670169123  0.11076473261684773  1.0000
  O   O9        1.0  0.6371455746960953  0.07617019467658606  0.9012106032859797  1.0000
  O   O10       1.0  0.8628544250883919  0.5761701948306264  0.598789396668643  1.0000
  O   O11       1.0  0.36285442543631363  0.9238298056314945  0.09878939668348699  1.0000
  O   O12       1.0  0.13714557504401692  0.42382980547745425  0.40121060330082364  1.0000
  O   O13       1.0  0.765448882683634  0.27327683595359625  0.911139565713338  1.0000
  O   O14       1.0  0.7345511179291054  0.7732768361076366  0.5888604342404391  1.0000
  O   O15       1.0  0.23455111744877488  0.7267231643544844  0.0888604342561285  1.0000
  O   O16       1.0  0.2654488822033035  0.22672316420044406  0.4111395657290275  1.0000
  O   O17       1.0  0.5143344677048036  0.6044419583782267  0.12984957669010241  1.0000
  O   O18       1.0  0.9856655319533594  0.10444195822418634  0.37015042329030134  1.0000
  O   O19       1.0  0.4856655315993531  0.39555804192985394  0.8701504232802095  1.0000
  O   O20       1.0  0.014334468179049535  0.8955580420838942  0.6298495766791653  1.0000
  O   O21       1.0  0.705019201215744  0.5937565095174131  0.14894939024061574  1.0000
  O   O22       1.0  0.794980799270671  0.09375650936337274  0.3510506097389426  1.0000
  O   O23       1.0  0.2949807989166649  0.4062434895366116  0.8510506097288509  1.0000
  O   O24       1.0  0.20501920086173786  0.9062434896906519  0.648949390230524  1.0000
  O   O25       1.0  0.6545997903434907  0.6793687953940984  0.8573636801961629  1.0000
  O   O26       1.0  0.8454002094409966  0.17936879524005817  0.6426363197584597  1.0000
  O   O27       1.0  0.3454002097889182  0.3206312049139821  0.14263631977330368  1.0000
  O   O28       1.0  0.1545997906914123  0.8206312050680225  0.357363680211007  1.0000
  O   O29       1.0  0.4891186035431948  0.7931927604867105  0.8571996744208683  1.0000
  O   O30       1.0  0.010881396235207886  0.2931927603326702  0.6428003255385065  1.0000
  O   O31       1.0  0.510881396589214  0.2068072398213701  0.1428003255485983  1.0000
  O   O32       1.0  0.989118603897201  0.7068072387213543  0.35719967443096  1.0000
  Cl  Cl1       1.0  0.4349247084600373  0.06817713510165242  0.6942626639290703  1.0000
  Cl  Cl2       1.0  0.06507529131836541  0.5681771352556927  0.8057373360303045  1.0000
  Cl  Cl3       1.0  0.5650752916723716  0.9318228652064282  0.30573733604039627  1.0000
  Cl  Cl4       1.0  0.9349247088140435  0.43182286505238787  0.19426266393916208  1.0000
  Cl  Cl5       1.0  0.7780334147561885  0.40763092820072055  0.05395937830080444  1.0000
  Cl  Cl6       1.0  0.7219665849019745  0.9076309283547609  0.44604062167959935  1.0000
  Cl  Cl7       1.0  0.2219665845479684  0.5923690721073601  0.9460406216695076  1.0000
  Cl  Cl8       1.0  0.2780334152304344  0.09236907195331978  0.5539593782898674  1.0000
