data_image0
_chemical_formula_structural       H38C32N8O8Br2
_chemical_formula_sum              "H38 C32 N8 O8 Br2"
_cell_length_a       6.697976245279602
_cell_length_b       8.273900736008736
_cell_length_c       15.044858680189147
_cell_angle_alpha    94.67034658962004
_cell_angle_beta     93.73102147588703
_cell_angle_gamma    90.19998906854386

_space_group_name_H-M_alt    "P 1"
_space_group_IT_number       1

loop_
  _space_group_symop_operation_xyz
  'x, y, z'

loop_
  _atom_site_type_symbol
  _atom_site_label
  _atom_site_symmetry_multiplicity
  _atom_site_fract_x
  _atom_site_fract_y
  _atom_site_fract_z
  _atom_site_occupancy
  H   H1        1.0  0.4062158596435736  0.9278138186048247  0.3714912474814744  1.0000
  H   H2        1.0  0.5937841392804408  0.07218618164344558  0.6285087527465905  1.0000
  H   H3        1.0  0.5091676118476967  0.9398833453610516  0.0921013030642402  1.0000
  H   H4        1.0  0.49083238847971183  0.060116654787857625  0.907898696499091  1.0000
  H   H5        1.0  0.38968442993168184  0.38603816554707365  0.25210571644236784  1.0000
  H   H6        1.0  0.6103155703957266  0.6139618346018356  0.7478942831209634  1.0000
  H   H7        1.0  0.8763291138210256  0.5584070082819825  0.16633038594264166  1.0000
  H   H8        1.0  0.12367088659647882  0.44159299196605584  0.8336696142890117  1.0000
  H   H9        1.0  0.8590199978874761  0.9522321112182834  0.42381089541473227  1.0000
  H   H10       1.0  0.1409800025300285  0.047767889029755074  0.5761891048169211  1.0000
  H   H11       1.0  0.9642633737912701  0.739243406868426  0.3195156241741372  1.0000
  H   H12       1.0  0.03573662653613829  0.2607565932804833  0.680484375389194  1.0000
  H   H13       1.0  0.11210082826235554  0.5224190775762398  0.11854159128529407  1.0000
  H   H14       1.0  0.887899172155149  0.4775809226717985  0.8814584089463593  1.0000
  H   H15       1.0  0.9612354723680686  0.4772343771594204  0.3643493909532024  1.0000
  H   H16       1.0  0.038764527959339955  0.522765622989489  0.6356506086101289  1.0000
  H   H17       1.0  0.7375715809157645  0.5105588054036581  0.42187275863450013  1.0000
  H   H18       1.0  0.2624284195017402  0.48944119484438026  0.5781272415971532  1.0000
  H   H19       1.0  0.7369512383415723  0.34330318571106566  0.5239028466294765  1.0000
  H   H20       1.0  0.26304876207593225  0.6566968145369728  0.4760971536021768  1.0000
  H   H21       1.0  0.7450842220130336  0.12960574654613544  0.5015701183919802  1.0000
  H   H22       1.0  0.25491577840447105  0.8703942537019029  0.49842988183967313  1.0000
  H   H23       1.0  0.15551157560121978  0.9036623517051975  0.04872832774575688  1.0000
  H   H24       1.0  0.8444884233227947  0.09633764854307288  0.9512716724823078  1.0000
  H   H25       1.0  0.12669670865198387  0.6928848871191143  0.01967911844653924  1.0000
  H   H26       1.0  0.8733032902720307  0.30711511312915607  0.9803208817815255  1.0000
  H   H27       1.0  0.10706160896081765  0.5802698573763881  0.23408416075898983  1.0000
  H   H28       1.0  0.8929383914566869  0.41973014287165034  0.7659158394726635  1.0000
  H   H29       1.0  0.9882472563175614  0.08031943419228343  0.11717769967748641  1.0000
  H   H30       1.0  0.011752742516357231  0.9196805659568579  0.8828222998822564  1.0000
  H   H31       1.0  0.8973218156232494  0.2958942234036016  0.22368671035311474  1.0000
  H   H32       1.0  0.10267818330076525  0.7041057768446688  0.7763132898749502  1.0000
  H   H33       1.0  0.9102433293007428  0.8182596570618186  0.023911968677109853  1.0000
  H   H34       1.0  0.08975667111059824  0.18174034197758457  0.9760880315544878  1.0000
  H   H35       1.0  0.9730929259654298  0.24496635327980215  0.5167529702096051  1.0000
  H   H36       1.0  0.026907074361978693  0.755033646869107  0.48324702935372615  1.0000
  H   H37       1.0  0.720282370338767  0.44381221521688996  0.3065657662687036  1.0000
  H   H38       1.0  0.27971763007873773  0.5561877850311484  0.6934342339629499  1.0000
  C   C1        1.0  0.44797103032201974  0.1722362295132473  0.1637759241088629  1.0000
  C   C2        1.0  0.5520289686019948  0.827763770735023  0.8362240761192019  1.0000
  C   C3        1.0  0.40768537919927944  0.25499210044944354  0.2446677166225814  1.0000
  C   C4        1.0  0.5923146211281289  0.7450078996994658  0.7553322829407499  1.0000
  C   C5        1.0  0.3937859564019138  0.16398568096264762  0.31864836647810096  1.0000
  C   C6        1.0  0.6062140440155908  0.8360143192853907  0.6813516337535523  1.0000
  C   C7        1.0  0.4167422799670665  0.9962596768741631  0.31335846549242785  1.0000
  C   C8        1.0  0.583257718866852  0.0037403232749780957  0.6866415340673149  1.0000
  C   C9        1.0  0.4569177035604668  0.920187818924979  0.2305217819332392  1.0000
  C   C10       1.0  0.5430822968570377  0.07981218132305937  0.769478218298414  1.0000
  C   C11       1.0  0.47539426045851413  0.004814210192546824  0.1549914471681484  1.0000
  C   C12       1.0  0.5246057398688942  0.9951857899563625  0.8450085523951828  1.0000
  C   C13       1.0  0.8692544008405165  0.14526939478271167  0.3341734684007927  1.0000
  C   C14       1.0  0.13074559957698811  0.8547306054653268  0.6658265318308606  1.0000
  C   C15       1.0  0.8900103782727575  0.983434402861911  0.35735177235092064  1.0000
  C   C16       1.0  0.1099896220546509  0.016565597286998333  0.6426482272124105  1.0000
  C   C17       1.0  0.948908826775101  0.8604262397844161  0.29697982273234147  1.0000
  C   C18       1.0  0.05109117355230742  0.1395737603644931  0.7030201768309897  1.0000
  C   C19       1.0  0.986073964577005  0.8890022472897594  0.20812618855760184  1.0000
  C   C20       1.0  0.013926035834336006  0.11099775174964376  0.7918738116739957  1.0000
  C   C21       1.0  0.9618165918957823  0.04986966650741952  0.1843242342680384  1.0000
  C   C22       1.0  0.03818340852172224  0.9501303337406188  0.8156757659636149  1.0000
  C   C23       1.0  0.9095334829363433  0.1743208733780655  0.24575099540033632  1.0000
  C   C24       1.0  0.09046651589757514  0.8256791267710757  0.7542490041594064  1.0000
  C   C25       1.0  0.806987676575691  0.4330952860625361  0.370306268193811  1.0000
  C   C26       1.0  0.19301232234832355  0.5669047141857343  0.6296937320342537  1.0000
  C   C27       1.0  0.8164113086011311  0.2444282602975958  0.4890728843178104  1.0000
  C   C28       1.0  0.1835886903228835  0.7555717399506745  0.5109271159102544  1.0000
  C   C29       1.0  0.06033932527835015  0.7973940457917706  0.05574825264360417  1.0000
  C   C30       1.0  0.9396606736456646  0.20260595445649976  0.9442517475844606  1.0000
  C   C31       1.0  0.03422811907480562  0.59843940307758  0.16816223030327423  1.0000
  C   C32       1.0  0.9657718813426989  0.40156059717045833  0.8318377699283791  1.0000
  N   N1        1.0  0.3504962351397626  0.2472396397959125  0.4039057375411569  1.0000
  N   N2        1.0  0.649503765187646  0.7527603603529968  0.5960942620221744  1.0000
  N   N3        1.0  0.4801443993657154  0.7450685775313335  0.22253414108029027  1.0000
  N   N4        1.0  0.5198556010517892  0.2549314227167049  0.7774658591513631  1.0000
  N   N5        1.0  0.8061139965952678  0.26699119181232356  0.39417583526193994  1.0000
  N   N6        1.0  0.19388600373214057  0.7330088083365858  0.6058241643013913  1.0000
  N   N7        1.0  0.05174065585960448  0.7667141339139877  0.14877926836151434  1.0000
  N   N8        1.0  0.948259344467804  0.23328586623492165  0.851220731201817  1.0000
  O   O1        1.0  0.3146696288982719  0.39556968543644394  0.4061122213529964  1.0000
  O   O2        1.0  0.6853303715192326  0.6044303148115945  0.593887778878657  1.0000
  O   O3        1.0  0.34552090475183217  0.16575473136852018  0.4702073866559538  1.0000
  O   O4        1.0  0.6544790955755763  0.8342452687803891  0.5297926129073774  1.0000
  O   O5        1.0  0.4367869183984746  0.6686117324138342  0.28695760878238274  1.0000
  O   O6        1.0  0.56321308201903  0.3313882678342042  0.7130423914492705  1.0000
  O   O7        1.0  0.5468643090209546  0.6799180215197255  0.15275616869852365  1.0000
  O   O8        1.0  0.45313569139038645  0.32008197751967776  0.8472438315330739  1.0000
  Br  Br1       1.0  0.467242547083583  0.2878634366946268  0.06036646488372411  1.0000
  Br  Br2       1.0  0.5327574533339215  0.7121365635534117  0.9396335353479293  1.0000
