data_image0
_chemical_formula_structural       H18C18N2O8
_chemical_formula_sum              "H18 C18 N2 O8"
_cell_length_a       3.7189455380331995
_cell_length_b       9.200972402528254
_cell_length_c       13.053700406357361
_cell_angle_alpha    97.1850489348399
_cell_angle_beta     91.59179923795442
_cell_angle_gamma    98.3468697520377

_space_group_name_H-M_alt    "P 1"
_space_group_IT_number       1

loop_
  _space_group_symop_operation_xyz
  'x, y, z'

loop_
  _atom_site_type_symbol
  _atom_site_label
  _atom_site_symmetry_multiplicity
  _atom_site_fract_x
  _atom_site_fract_y
  _atom_site_fract_z
  _atom_site_occupancy
  H   H1        1.0  0.6593927379789332  0.3396955745645167  0.20314094235125366  1.0000
  H   H2        1.0  0.34060726419315807  0.6603044254740339  0.796859057683799  1.0000
  H   H3        1.0  0.7787837550419808  0.47866649564810726  0.06820528592545254  1.0000
  H   H4        1.0  0.22121624444186955  0.5213335043950836  0.931794714088862  1.0000
  H   H5        1.0  0.19538225211088778  0.7261858709351305  0.0979469503568547  1.0000
  H   H6        1.0  0.8046177496421794  0.2738141279954738  0.9020530495787065  1.0000
  H   H7        1.0  0.45669888691348043  0.8174108017445402  0.2779705185271703  1.0000
  H   H8        1.0  0.5433011125703698  0.18258919829865058  0.7220294814871442  1.0000
  H   H9        1.0  0.3161304096724332  0.6571693835678082  0.4196402419960288  1.0000
  H   H10       1.0  0.6838695898114173  0.34283061647538265  0.5803597580182858  1.0000
  H   H11       1.0  0.8992064143578994  0.4117883632762244  0.3726363664008381  1.0000
  H   H12       1.0  0.10079358512595109  0.5882116367669664  0.6273636336134765  1.0000
  H   H13       1.0  0.24278897735059396  0.11329001422455959  0.25988189770621833  1.0000
  H   H14       1.0  0.7572110221332563  0.8867099858186313  0.7401181023080962  1.0000
  H   H15       1.0  0.16528271387983265  0.13532694877905752  0.5774128716314714  1.0000
  H   H16       1.0  0.8347172856027497  0.8646730512619638  0.422587127616577  1.0000
  H   H17       1.0  0.9342384032726848  0.9609732648567851  0.10965712487179677  1.0000
  H   H18       1.0  0.06576159621116553  0.03902673518640578  0.8903428751425178  1.0000
  C   C1        1.0  0.9126867499496721  0.5261167449750519  0.14252295273776405  1.0000
  C   C2        1.0  0.08731324953417816  0.47388325506813883  0.8574770472765505  1.0000
  C   C3        1.0  0.13723354844652103  0.6617626189823429  0.16144441565159617  1.0000
  C   C4        1.0  0.8627664510373293  0.33823738106084794  0.8385555843627184  1.0000
  C   C5        1.0  0.2832730413391876  0.710291014373228  0.2616504120249419  1.0000
  C   C6        1.0  0.7167269581446626  0.2897089856699628  0.7383495879893726  1.0000
  C   C7        1.0  0.20464746061059613  0.6225847460613484  0.3406579296490207  1.0000
  C   C8        1.0  0.7953525415614952  0.3774152539772022  0.6593420703860321  1.0000
  C   C9        1.0  0.9796074406609001  0.487628880853543  0.31703336535599824  1.0000
  C   C10       1.0  0.020392558822950352  0.512371119189648  0.6829666346583162  1.0000
  C   C11       1.0  0.23290941054104175  0.13703041466005622  0.4119159306427811  1.0000
  C   C12       1.0  0.7670905889428086  0.8629695853831345  0.5880840693715335  1.0000
  C   C13       1.0  0.09699502363480632  0.06787234820642694  0.5028803031903257  1.0000
  C   C14       1.0  0.9030049785372849  0.9321276518321235  0.49711969684472695  1.0000
  C   C15       1.0  0.2708204171355496  0.17200346982570225  0.08290930035446428  1.0000
  C   C16       1.0  0.7291795823483008  0.8279965302174885  0.9170906996598502  1.0000
  C   C17       1.0  0.038261624644183395  0.02660847101629372  0.04985167395851405  1.0000
  C   C18       1.0  0.9617383775266399  0.9733915290200875  0.9501483253102725  1.0000
  N   N1        1.0  0.8420626692260634  0.44389773317822184  0.21983371593008438  1.0000
  N   N2        1.0  0.15793733025778697  0.556102266864969  0.78016628408423  1.0000
  O   O1        1.0  0.42427988407633654  0.2607835002830791  0.4237806304674937  1.0000
  O   O2        1.0  0.5757201154075139  0.7392164997601117  0.5762193695468207  1.0000
  O   O3        1.0  0.13555108865490118  0.05702668257692142  0.3213930970158279  1.0000
  O   O4        1.0  0.8644489108289491  0.9429733174662694  0.6786069029984865  1.0000
  O   O5        1.0  0.39078370526840045  0.19441570139830175  0.17966901179546665  1.0000
  O   O6        1.0  0.6092162942154499  0.805584298644889  0.8203309882188479  1.0000
  O   O7        1.0  0.3480370236001416  0.26366490181485086  0.02109469265688692  1.0000
  O   O8        1.0  0.6519629758837088  0.73633509822834  0.9789053073574275  1.0000
