data_image0
_chemical_formula_structural       H22C20N2O8
_chemical_formula_sum              "H22 C20 N2 O8"
_cell_length_a       3.821559163184577
_cell_length_b       8.926135678568793
_cell_length_c       14.582079031668362
_cell_angle_alpha    80.27048603992722
_cell_angle_beta     83.4804982055139
_cell_angle_gamma    79.75997329402915

_space_group_name_H-M_alt    "P 1"
_space_group_IT_number       1

loop_
  _space_group_symop_operation_xyz
  'x, y, z'

loop_
  _atom_site_type_symbol
  _atom_site_label
  _atom_site_symmetry_multiplicity
  _atom_site_fract_x
  _atom_site_fract_y
  _atom_site_fract_z
  _atom_site_occupancy
  H   H1        1.0  0.040624571467015445  0.05602536441384742  0.0914840972505564  1.0000
  H   H2        1.0  0.9593754282989363  0.9439746357554027  0.9085159024995313  1.0000
  H   H3        1.0  0.8163171138290533  0.9048374327061607  0.25512463423216275  1.0000
  H   H4        1.0  0.18368288593689852  0.09516256746308967  0.7448753655179249  1.0000
  H   H5        1.0  0.71362367884169  0.11939942321970547  0.44233953897294803  1.0000
  H   H6        1.0  0.2863763209242618  0.8806005769495447  0.5576604607771398  1.0000
  H   H7        1.0  0.6807779901614356  0.6051227393820383  0.1088087393586662  1.0000
  H   H8        1.0  0.31922200960451624  0.3948772607872121  0.8911912603914216  1.0000
  H   H9        1.0  0.44473953504063757  0.6450826949522094  0.2602626538704599  1.0000
  H   H10       1.0  0.5552604647409279  0.3549173052117438  0.739737346565468  1.0000
  H   H11       1.0  0.12625839546080658  0.1935901942545453  0.3068083306149587  1.0000
  H   H12       1.0  0.8737416043051454  0.806409805914705  0.693191669135129  1.0000
  H   H13       1.0  0.39420318994804737  0.1610658742046366  0.14670160006233188  1.0000
  H   H14       1.0  0.6057968098179045  0.8389341259646135  0.8532983996877559  1.0000
  H   H15       1.0  0.6802708938388002  0.374310692398246  0.04908916767657699  1.0000
  H   H16       1.0  0.31972910594276516  0.6256893077657071  0.950910832759351  1.0000
  H   H17       1.0  0.3224564132731493  0.41700699817430587  0.4442718094527486  1.0000
  H   H18       1.0  0.6775435865084162  0.5829930019896473  0.5557281909831795  1.0000
  H   H19       1.0  0.9107755966213654  0.372861760890128  0.42286355470550224  1.0000
  H   H20       1.0  0.0892244031445864  0.6271382392791222  0.5771364450445856  1.0000
  H   H21       1.0  0.9905664081947494  0.5674038542110883  0.39741932404555547  1.0000
  H   H22       1.0  0.00943359200671384  0.4325961448010299  0.6025806764938962  1.0000
  C   C1        1.0  0.8766492210320987  0.8305088574150784  0.09250219348736079  1.0000
  C   C2        1.0  0.12335077873385303  0.1694911427541718  0.9074978062627269  1.0000
  C   C3        1.0  0.9872786656464129  0.9785864953666419  0.0463307231121545  1.0000
  C   C4        1.0  0.012721334135152577  0.021413504797311283  0.9536692773237735  1.0000
  C   C5        1.0  0.6383873148454112  0.9113820615163998  0.38698115415827133  1.0000
  C   C6        1.0  0.36161268492054066  0.08861793865285038  0.6130188455918163  1.0000
  C   C7        1.0  0.593257328704874  0.015000126606042163  0.45876075840674296  1.0000
  C   C8        1.0  0.40674267106107787  0.9849998735632082  0.5412392413433448  1.0000
  C   C9        1.0  0.4189910763036519  0.5357110632824539  0.2400283523304287  1.0000
  C   C10       1.0  0.5810089234622998  0.4642889368867963  0.7599716474196591  1.0000
  C   C11       1.0  0.2605062465267966  0.42168279467108577  0.29921455292914345  1.0000
  C   C12       1.0  0.7394937532547688  0.5783172054928675  0.7007854475067845  1.0000
  C   C13       1.0  0.25078595711909224  0.28579727010105627  0.26424287488088244  1.0000
  C   C14       1.0  0.7492140426468595  0.7142027300681939  0.7357571248692052  1.0000
  C   C15       1.0  0.39740658553171637  0.266489222497709  0.17421075192394725  1.0000
  C   C16       1.0  0.6025934142342355  0.7335107776715413  0.8257892478261405  1.0000
  C   C17       1.0  0.5518922481254805  0.3835199127493728  0.11900188500596154  1.0000
  C   C18       1.0  0.4481077516404713  0.6164800874198775  0.8809981147441263  1.0000
  C   C19       1.0  0.11157949771834752  0.4466999262383552  0.39578163146307  1.0000
  C   C20       1.0  0.888420502063218  0.553300073925598  0.604218368972858  1.0000
  N   N1        1.0  0.556542645155302  0.5139646149508069  0.15335047156787124  1.0000
  N   N2        1.0  0.44345735503054745  0.4860353840666085  0.8466495282857401  1.0000
  O   O1        1.0  0.8469367686311502  0.7302321949514514  0.04209511961556165  1.0000
  O   O2        1.0  0.15306323155469917  0.269767804065964  0.9579048802380499  1.0000
  O   O3        1.0  0.8109717322437505  0.8102864481500501  0.18096621344477554  1.0000
  O   O4        1.0  0.18902826752220128  0.18971355201920012  0.8190337863053122  1.0000
  O   O5        1.0  0.8046969999708302  0.9721775598351093  0.30767991422319996  1.0000
  O   O6        1.0  0.195303000230633  0.027822439177008797  0.6923200863162517  1.0000
  O   O7        1.0  0.5294516026385956  0.7868168148009602  0.3998034078359888  1.0000
  O   O8        1.0  0.47054839712735613  0.21318318536828998  0.6001965919140988  1.0000
