data_image0
_chemical_formula_structural       H92B20C36N2Br2I4
_chemical_formula_sum              "H92 B20 C36 N2 Br2 I4"
_cell_length_a       10.877855798754151
_cell_length_b       11.552626903046233
_cell_length_c       12.940176651245869
_cell_angle_alpha    92.96513788380418
_cell_angle_beta     95.70811877903446
_cell_angle_gamma    109.68740011229563

_space_group_name_H-M_alt    "P 1"
_space_group_IT_number       1

loop_
  _space_group_symop_operation_xyz
  'x, y, z'

loop_
  _atom_site_type_symbol
  _atom_site_label
  _atom_site_symmetry_multiplicity
  _atom_site_fract_x
  _atom_site_fract_y
  _atom_site_fract_z
  _atom_site_occupancy
  H   H1        1.0  0.07419922355270156  0.33721579820062814  0.20152257584962546  1.0000
  H   H2        1.0  0.925800776394506  0.6627842020352156  0.7984774239829093  1.0000
  H   H3        1.0  0.20599653447328925  0.3573483557962168  0.12749215525783755  1.0000
  H   H4        1.0  0.7940034654739183  0.642651644439627  0.8725078445746973  1.0000
  H   H5        1.0  0.1900627079793263  0.5599945997159486  0.2848431830306539  1.0000
  H   H6        1.0  0.8099372928910237  0.44000540052990034  0.7151568168045912  1.0000
  H   H7        1.0  0.30907490417568373  0.5771394296826577  0.19869188610608982  1.0000
  H   H8        1.0  0.6909250966946663  0.4228605705631912  0.8013081137291552  1.0000
  H   H9        1.0  0.012200748466239877  0.507928365290873  0.13343372247627153  1.0000
  H   H10       1.0  0.9877992524041102  0.49207163495497613  0.8665662773589736  1.0000
  H   H11       1.0  0.12884512206390072  0.5188879310438561  0.04605502110091026  1.0000
  H   H12       1.0  0.8711548775638406  0.4811120682725064  0.9539449787298575  1.0000
  H   H13       1.0  0.07629050631675652  0.7140905335331651  0.06013084726741437  1.0000
  H   H14       1.0  0.9237094936304512  0.28590946670267864  0.9398691525651205  1.0000
  H   H15       1.0  0.12673660012382362  0.7342899111040823  0.1963780977733262  1.0000
  H   H16       1.0  0.8732633995039176  0.26571008821228037  0.8036219020574416  1.0000
  H   H17       1.0  0.2436107661578539  0.7441928865397549  0.10788049516783835  1.0000
  H   H18       1.0  0.7563892334698874  0.2558071127766077  0.8921195046629293  1.0000
  H   H19       1.0  0.4152715235886139  0.5059461001655453  0.3169044380180568  1.0000
  H   H20       1.0  0.5847284763585937  0.49405390007029837  0.6830955618144781  1.0000
  H   H21       1.0  0.4437674378980789  0.3737926155743742  0.35965900046245775  1.0000
  H   H22       1.0  0.5562325620491287  0.6262073846614695  0.640340999370077  1.0000
  H   H23       1.0  0.44547049641997194  0.2981542268801597  0.17311310001548216  1.0000
  H   H24       1.0  0.5545295032077693  0.7018457724362029  0.8268868998152856  1.0000
  H   H25       1.0  0.4173718892084338  0.4307515292213778  0.13009130250974216  1.0000
  H   H26       1.0  0.5826281107387739  0.569248471014466  0.8699086973227926  1.0000
  H   H27       1.0  0.6536440869862387  0.43056403024374734  0.280256993590832  1.0000
  H   H28       1.0  0.34635591296096896  0.5694359699920964  0.7197430062417028  1.0000
  H   H29       1.0  0.6257014426883858  0.5641755291962995  0.2406721594931829  1.0000
  H   H30       1.0  0.3742985572588219  0.4358244710395442  0.7593278403393519  1.0000
  H   H31       1.0  0.7832801427116212  0.5149947418253583  0.13401637791852875  1.0000
  H   H32       1.0  0.2167198569161202  0.48500525749100437  0.865983621912239  1.0000
  H   H33       1.0  0.6675000679876427  0.36489245130640136  0.09397198086784896  1.0000
  H   H34       1.0  0.332499931959565  0.6351075489294424  0.9060280189646859  1.0000
  H   H35       1.0  0.6356684159297297  0.4977207253291021  0.052753129628329815  1.0000
  H   H36       1.0  0.36433158369801166  0.5022792739872606  0.947246870202438  1.0000
  H   H37       1.0  0.10695281769854495  0.16586016182993232  0.24868935201686423  1.0000
  H   H38       1.0  0.8930471820475877  0.8341398375683016  0.751310648593769  1.0000
  H   H39       1.0  0.24918030645372327  0.19196553146473552  0.18620034628077406  1.0000
  H   H40       1.0  0.7508196940971604  0.8080344678616325  0.8137996535527039  1.0000
  H   H41       1.0  0.2228529930394869  0.13951217159482215  0.41502892579651657  1.0000
  H   H42       1.0  0.7771470069077209  0.8604878286410217  0.5849710740360183  1.0000
  H   H43       1.0  0.3753446515677262  0.18539902166592895  0.3649990810153031  1.0000
  H   H44       1.0  0.6246553480600152  0.8146009776504337  0.6350009188154646  1.0000
  H   H45       1.0  0.13830772898171229  0.9564153608019378  0.2799714590410216  1.0000
  H   H46       1.0  0.8616922718886378  0.04358463944391129  0.7200285407942234  1.0000
  H   H47       1.0  0.2938343531826247  0.0007523816774653142  0.23538209633013343  1.0000
  H   H48       1.0  0.7061656467645829  0.9992476185583785  0.7646179035024014  1.0000
  H   H49       1.0  0.27207435980931005  0.8405593739463098  0.36637012471163605  1.0000
  H   H50       1.0  0.7279256401378976  0.15944062628953395  0.6336298751208987  1.0000
  H   H51       1.0  0.3990822930805964  0.9810456491244314  0.4128314998657176  1.0000
  H   H52       1.0  0.6009177069850027  0.018954351193283637  0.5871685007466827  1.0000
  H   H53       1.0  0.24551853496007128  0.9429414523935136  0.4613809869437112  1.0000
  H   H54       1.0  0.75448146466767  0.057058546922849084  0.5386190128870566  1.0000
  H   H55       1.0  0.2616599072944829  0.32681717036160707  0.44830819109283937  1.0000
  H   H56       1.0  0.7383400923332583  0.6731828289547556  0.5516918087379283  1.0000
  H   H57       1.0  0.2563524140592662  0.4698497820618984  0.4124651714055653  1.0000
  H   H58       1.0  0.7436475858879414  0.5301502181739454  0.5875348284269695  1.0000
  H   H59       1.0  0.014939495883579956  0.23015312943330027  0.3737731045395564  1.0000
  H   H60       1.0  0.9850605041820191  0.7698468708844148  0.6262268960728439  1.0000
  H   H61       1.0  0.019082553796950584  0.38031444034728373  0.3491680833087691  1.0000
  H   H62       1.0  0.9809174467539329  0.6196855589790841  0.650831916524709  1.0000
  H   H63       1.0  0.1050227707015892  0.4449251242503893  0.5449746363457315  1.0000
  H   H64       1.0  0.8949772292456185  0.5550748759854545  0.4550253634868034  1.0000
  H   H65       1.0  0.9380661450592374  0.3534589007603702  0.5103016438128859  1.0000
  H   H66       1.0  0.06193385456850403  0.6465410985559924  0.4896983560178819  1.0000
  H   H67       1.0  0.040450694674080634  0.2779280478321932  0.6639506980965113  1.0000
  H   H68       1.0  0.959549305273127  0.7220719524036505  0.33604930173602343  1.0000
  H   H69       1.0  0.9818950006806023  0.16363860364928207  0.556834389134575  1.0000
  H   H70       1.0  0.018105000189747728  0.8363613965965669  0.4431656107006703  1.0000
  H   H71       1.0  0.1531346838331445  0.24716966334175838  0.5869624729730688  1.0000
  H   H72       1.0  0.8468653161140632  0.7528303368940854  0.413037526859466  1.0000
  H   H73       1.0  0.8619023338422943  0.04604585383849088  0.9581745905103565  1.0000
  H   H74       1.0  0.13809766622330497  0.9539541464792243  0.041825410102043825  1.0000
  H   H75       1.0  0.7855127691598633  0.7673515306484294  0.9826782419922061  1.0000
  H   H76       1.0  0.21448723078734422  0.23264846958741425  0.017321757840328633  1.0000
  H   H77       1.0  0.9992901768722094  0.9522557809622871  0.13827562845707864  1.0000
  H   H78       1.0  0.0007098239981404529  0.04774421928356194  0.8617243713781666  1.0000
  H   H79       1.0  0.5722779024789884  0.8812667967720925  0.9259788180848765  1.0000
  H   H80       1.0  0.4277220975866108  0.11873320354562254  0.0740211825275238  1.0000
  H   H81       1.0  0.7892778861311615  0.7351435580181843  0.21756637244650578  1.0000
  H   H82       1.0  0.21072211441972216  0.26485644130818353  0.7824336273869722  1.0000
  H   H83       1.0  0.9115687716122232  0.17792131911907733  0.18151305931548609  1.0000
  H   H84       1.0  0.08843122801551825  0.8220786801972854  0.8184869405152817  1.0000
  H   H85       1.0  0.656924845031812  0.13546612230614186  0.055492868270918254  1.0000
  H   H86       1.0  0.34307515583853804  0.8645338779397072  0.9445071315643269  1.0000
  H   H87       1.0  0.5305842570901276  0.6919410347384868  0.09178418630326174  1.0000
  H   H88       1.0  0.4694157429754714  0.30805896557922835  0.9082158143091386  1.0000
  H   H89       1.0  0.8656412621673614  0.9854727249950054  0.33430663311505904  1.0000
  H   H90       1.0  0.13435873789823763  0.01452727532270968  0.6656933674973413  1.0000
  H   H91       1.0  0.46139291146211814  0.9178989877499072  0.1363218980157644  1.0000
  H   H92       1.0  0.5386070886034808  0.08210101256780786  0.8636781025966358  1.0000
  B   B1        1.0  0.8068128707717186  0.9975920332169984  0.027550753070922977  1.0000
  B   B2        1.0  0.19318712917548908  0.002407967018845326  0.9724492467616118  1.0000
  B   B3        1.0  0.7617821838597452  0.8376616831740032  0.0413425959412367  1.0000
  B   B4        1.0  0.23821781620585383  0.1623383171437119  0.9586574046711636  1.0000
  B   B5        1.0  0.8871664317368533  0.9444832717143747  0.13185692511224292  1.0000
  B   B6        1.0  0.11283356821035431  0.05551672852146895  0.868143074720292  1.0000
  B   B7        1.0  0.6379531277513969  0.9027822487170376  0.008769213536280579  1.0000
  B   B8        1.0  0.3620468721958107  0.09721775151880616  0.9912307862962543  1.0000
  B   B9        1.0  0.7684112340001183  0.8165898342282805  0.17562361483761896  1.0000
  B   B10       1.0  0.2315887659470893  0.1834101660075633  0.8243763849949157  1.0000
  B   B11       1.0  0.8408339608570754  0.07529233841221074  0.15384769689517291  1.0000
  B   B12       1.0  0.15916603909013227  0.924707661823633  0.8461523029373619  1.0000
  B   B13       1.0  0.6879456345442153  0.05015368428186692  0.07845507629000636  1.0000
  B   B14       1.0  0.31205436508352596  0.9498463150344956  0.9215449235407613  1.0000
  B   B15       1.0  0.6147544277887986  0.790861375574708  0.10018659163415847  1.0000
  B   B16       1.0  0.38524557288047634  0.20913862383353107  0.899813408979185  1.0000
  B   B17       1.0  0.8166196556899642  0.9636433979876338  0.24599025958241205  1.0000
  B   B18       1.0  0.18338034393777716  0.03635660132872891  0.7540097402483557  1.0000
  B   B19       1.0  0.5695050454117474  0.9227401977524782  0.12450921658438834  1.0000
  B   B20       1.0  0.4304949545354602  0.07725980248336552  0.8754907832481464  1.0000
  C   C1        1.0  0.17913814052054827  0.3883220331217948  0.2007659385195164  1.0000
  C   C2        1.0  0.8208618603498017  0.6116779671240541  0.7992340613157287  1.0000
  C   C3        1.0  0.205800369426299  0.5264247687511012  0.2078617796119358  1.0000
  C   C4        1.0  0.7941996305209087  0.47357523148474256  0.7921382202205991  1.0000
  C   C5        1.0  0.11571926050577457  0.5562976662127557  0.12260678230820078  1.0000
  C   C6        1.0  0.8842807391219668  0.4437023331036069  0.8773932175225669  1.0000
  C   C7        1.0  0.14185887036626632  0.6946044612859021  0.12163774176745674  1.0000
  C   C8        1.0  0.8581411293798663  0.3053955381123318  0.8783622588431765  1.0000
  C   C9        1.0  0.39887168237836196  0.40857344800555817  0.29411318477439596  1.0000
  C   C10       1.0  0.6011283181725217  0.5914265513208098  0.7058868150590821  1.0000
  C   C11       1.0  0.46120518193894955  0.3954315243777782  0.19618702842854055  1.0000
  C   C12       1.0  0.5387948181266494  0.6045684759399369  0.8038129721838597  1.0000
  C   C13       1.0  0.6094594787209442  0.46721485965251963  0.21523129867232366  1.0000
  C   C14       1.0  0.39054052090679714  0.5327851396638429  0.784768701158444  1.0000
  C   C15       1.0  0.6776525452477423  0.4605977835726581  0.11865276059125111  1.0000
  C   C16       1.0  0.3223474548178566  0.539402216745057  0.8813472400211492  1.0000
  C   C17       1.0  0.21467220846067087  0.20390109527578937  0.26143173667414515  1.0000
  C   C18       1.0  0.7853277912854617  0.7960989041224446  0.738568263936488  1.0000
  C   C19       1.0  0.2689266067836694  0.13847717766160064  0.3432580953131764  1.0000
  C   C20       1.0  0.7310733928440718  0.861522821654762  0.6567419045175913  1.0000
  C   C21       1.0  0.24407434324956429  0.0039821074131733475  0.30505803703863815  1.0000
  C   C22       1.0  0.7559256566976432  0.9960178928226704  0.6949419627938968  1.0000
  C   C23       1.0  0.292330269001815  0.9382066514552234  0.3905936823202708  1.0000
  C   C24       1.0  0.7076697309453926  0.06179334878062032  0.609406317512264  1.0000
  C   C25       1.0  0.2114749627322488  0.3697708211831338  0.3928834251451163  1.0000
  C   C26       1.0  0.7885250368954926  0.6302291781332289  0.6071165746856514  1.0000
  C   C27       1.0  0.06445983834098729  0.32861895277501924  0.40006869946454476  1.0000
  C   C28       1.0  0.9355401616062203  0.6713810474608246  0.5999313003679899  1.0000
  C   C29       1.0  0.03891242130916187  0.3520404045389466  0.5127244735540754  1.0000
  C   C30       1.0  0.9610875784369708  0.6479595948592873  0.48727552705655774  1.0000
  C   C31       1.0  0.054927250616073495  0.25516192635861124  0.5835748842424857  1.0000
  C   C32       1.0  0.9450727493311342  0.7448380738772324  0.416425115590049  1.0000
  C   C33       1.0  0.6550786059497709  0.8717778709153345  0.21919690530186894  1.0000
  C   C34       1.0  0.3449213949205792  0.12822212933051447  0.7808030945333763  1.0000
  C   C35       1.0  0.6977559248645082  0.02380054793081887  0.20640784256934797  1.0000
  C   C36       1.0  0.3022440748816245  0.9761994514674152  0.7935921580412851  1.0000
  N   N1        1.0  0.25081547567484413  0.3425749395330602  0.2870419676512646  1.0000
  N   N2        1.0  0.7491845242723635  0.6574250607027837  0.7129580321812703  1.0000
  Br  Br1       1.0  0.3787934352519553  0.6779714760412158  0.5128279322521699  1.0000
  Br  Br2       1.0  0.6212065656183947  0.32202852420463335  0.48717206758307524  1.0000
  I   I1        1.0  0.5490483963151406  0.7947274092398303  0.34745221616035643  1.0000
  I   I2        1.0  0.450951603632067  0.20527259099601342  0.6525477836721782  1.0000
  I   I3        1.0  0.6583351699610699  0.1455025591417636  0.32172245512263636  1.0000
  I   I4        1.0  0.3416648299861378  0.8544974410940801  0.6782775447098985  1.0000
