data_image0
_chemical_formula_structural       C60Cl24Br4
_chemical_formula_sum              "C60 Cl24 Br4"
_cell_length_a       12.178720205423689
_cell_length_b       12.464319277193466
_cell_length_c       12.56452186456497
_cell_angle_alpha    60.439365070028956
_cell_angle_beta     62.93430097625409
_cell_angle_gamma    84.37536907004153

_space_group_name_H-M_alt    "P 1"
_space_group_IT_number       1

loop_
  _space_group_symop_operation_xyz
  'x, y, z'

loop_
  _atom_site_type_symbol
  _atom_site_label
  _atom_site_symmetry_multiplicity
  _atom_site_fract_x
  _atom_site_fract_y
  _atom_site_fract_z
  _atom_site_occupancy
  C   C1        1.0  0.33908563072610265  0.25669452770194345  0.8567817832098458  1.0000
  C   C2        1.0  0.6609143696243139  0.7433054728171619  0.1432182167918571  1.0000
  C   C3        1.0  0.33317377233143625  0.17650188458473182  0.7988895147653832  1.0000
  C   C4        1.0  0.6668262280189805  0.8234981159343737  0.20111048523631955  1.0000
  C   C5        1.0  0.47103621439122  0.1806822241195046  0.7135186232520834  1.0000
  C   C6        1.0  0.5289637859591969  0.819317776399601  0.2864813767496194  1.0000
  C   C7        1.0  0.5214217062384152  0.16501528356504974  0.5900049879630138  1.0000
  C   C8        1.0  0.47857829337189034  0.8349847161485111  0.4099950120378033  1.0000
  C   C9        1.0  0.6501387954176652  0.24308642377293624  0.4814843373015333  1.0000
  C   C10       1.0  0.3498612049327517  0.7569135767461693  0.5185156627001695  1.0000
  C   C11       1.0  0.6590951523846069  0.30520343464273714  0.3385712366571615  1.0000
  C   C12       1.0  0.34090484804659044  0.6947965650703485  0.6614287633442097  1.0000
  C   C13       1.0  0.5221278581641251  0.300717880573804  0.3749277278610613  1.0000
  C   C14       1.0  0.4778721421862917  0.6992821199453015  0.6250722721406414  1.0000
  C   C15       1.0  0.47617222616352894  0.3926877797036767  0.2778522576629593  1.0000
  C   C16       1.0  0.5238277742676684  0.6073122200094089  0.722147742338412  1.0000
  C   C17       1.0  0.5549208365105488  0.5208548159143861  0.19335063272895545  1.0000
  C   C18       1.0  0.44507916392064856  0.47914518379869936  0.8066493672724159  1.0000
  C   C19       1.0  0.6922217707521862  0.5404083704288901  0.14464168134668445  1.0000
  C   C20       1.0  0.30777822967901103  0.4595916292841952  0.8553583186546869  1.0000
  C   C21       1.0  0.7241736372382799  0.43738224959398175  0.2520855687868983  1.0000
  C   C22       1.0  0.27582636237202574  0.5626177501195792  0.7479144312139188  1.0000
  C   C23       1.0  0.44734661705023865  0.22429975689383608  0.5113019602350952  1.0000
  C   C24       1.0  0.5526533825600668  0.7757002428197246  0.48869803976572185  1.0000
  C   C25       1.0  0.31005193674212567  0.22469585944997525  0.580571160732424  1.0000
  C   C26       1.0  0.6899480636890717  0.7753041402631101  0.4194288392689473  1.0000
  C   C27       1.0  0.27283422840800875  0.2351474410041876  0.7074033911896279  1.0000
  C   C28       1.0  0.7271657720231884  0.7648525587088979  0.2925966088117433  1.0000
  C   C29       1.0  0.27513621222499274  0.3438770179382879  0.49199856597259084  1.0000
  C   C30       1.0  0.7248637882062046  0.6561229817747976  0.5080014340287805  1.0000
  C   C31       1.0  0.34909903139631054  0.41887372582289273  0.35646115140918455  1.0000
  C   C32       1.0  0.6509009690348867  0.5811262738901928  0.6435388485921868  1.0000
  C   C33       1.0  0.20211735855507107  0.32486503727522964  0.7088804659734335  1.0000
  C   C34       1.0  0.7978826418761262  0.675134962437856  0.2911195340279378  1.0000
  C   C35       1.0  0.17921449985514357  0.38903751100562606  0.584040238717609  1.0000
  C   C36       1.0  0.8207855004952731  0.6109624895134793  0.41595976128409384  1.0000
  C   C37       1.0  0.20654051037439525  0.5278935222147576  0.5166559505829835  1.0000
  C   C38       1.0  0.7934594891551298  0.47210647830482333  0.483344049418165  1.0000
  C   C39       1.0  0.5428962929237242  0.22598043467889445  0.7426124563109693  1.0000
  C   C40       1.0  0.4571037066058007  0.7740195658406863  0.2573875436901794  1.0000
  C   C41       1.0  0.4655605166573038  0.26066674369678033  0.8521961858371878  1.0000
  C   C42       1.0  0.534439483693113  0.7393332568223254  0.1478038141645148  1.0000
  C   C43       1.0  0.48399069134067546  0.6103199104798582  0.19532560993404402  1.0000
  C   C44       1.0  0.51600930826963  0.3896800892337026  0.804674390066773  1.0000
  C   C45       1.0  0.34566682340220084  0.5579119038698356  0.28049442052235796  1.0000
  C   C46       1.0  0.6543331770289965  0.4420880958432497  0.7195055794790134  1.0000
  C   C47       1.0  0.28187435300429264  0.60361316170436  0.3802764349617512  1.0000
  C   C48       1.0  0.7181256466060127  0.39638683800920094  0.6197235650390659  1.0000
  C   C49       1.0  0.6810767779629456  0.26643063704175535  0.6537212628920073  1.0000
  C   C50       1.0  0.3189232215665794  0.7335693634778255  0.3462787371091414  1.0000
  C   C51       1.0  0.7213120220229782  0.28864578776281635  0.5101149524359114  1.0000
  C   C52       1.0  0.2786879775873274  0.7113542119507446  0.48988504756490564  1.0000
  C   C53       1.0  0.1808365614302231  0.5941750142382257  0.597379186865351  1.0000
  C   C54       1.0  0.8191634390009742  0.4058249854748597  0.4026208131360202  1.0000
  C   C55       1.0  0.796336475357174  0.4827731182946537  0.28069437225119004  1.0000
  C   C56       1.0  0.20366352425313136  0.517226881418907  0.7193056277496271  1.0000
  C   C57       1.0  0.17545679298528366  0.37566824055659087  0.8022221739820861  1.0000
  C   C58       1.0  0.8245432074459136  0.6243317591564946  0.19777782601928526  1.0000
  C   C59       1.0  0.2686613784012404  0.3457394146582704  0.8582028916724054  1.0000
  C   C60       1.0  0.7313386220299568  0.654260585054815  0.14179710832896594  1.0000
  Cl  Cl1       1.0  0.2529376657237845  0.016558014379900853  0.9338267439268895  1.0000
  Cl  Cl2       1.0  0.7470623338057406  0.98344198613968  0.06617325607425906  1.0000
  Cl  Cl3       1.0  0.5211929538782184  0.9991744977551225  0.6457911269833966  1.0000
  Cl  Cl4       1.0  0.47880704565130655  0.0008255027644586912  0.35420887301775206  1.0000
  Cl  Cl5       1.0  0.7365901740102083  0.22012580152099262  0.24774667050268637  1.0000
  Cl  Cl6       1.0  0.26340982560009707  0.7798741981925681  0.7522533294981307  1.0000
  Cl  Cl7       1.0  0.47439768598109067  0.3360344497168076  0.16947274114629904  1.0000
  Cl  Cl8       1.0  0.5256023144501065  0.6639655499962779  0.8305272588550723  1.0000
  Cl  Cl9       1.0  0.7794214382616189  0.5488930245740532  0.9777831632111164  1.0000
  Cl  Cl10      1.0  0.22057856216957836  0.4511069751390322  0.022216836790254924  1.0000
  Cl  Cl11      1.0  0.22196019898921043  0.08597128497120386  0.6227352583156506  1.0000
  Cl  Cl12      1.0  0.7780398006210951  0.914028714742357  0.37726474168516644  1.0000
  Cl  Cl13      1.0  0.020078903053495845  0.33750415956846314  0.6329434233299948  1.0000
  Cl  Cl14      1.0  0.979921097296921  0.6624958409506423  0.367056576671708  1.0000
  Cl  Cl15      1.0  0.46037786421049787  0.1504461162585415  0.018794235123340518  1.0000
  Cl  Cl16      1.0  0.5396221353190271  0.8495538842610396  0.9812057648778081  1.0000
  Cl  Cl17      1.0  0.2721103737434823  0.5982463435358427  0.1705051227273064  1.0000
  Cl  Cl18      1.0  0.7278896257860427  0.4017536569837383  0.8294948772738422  1.0000
  Cl  Cl19      1.0  0.7625704389688339  0.1522605570651812  0.738026759523336  1.0000
  Cl  Cl20      1.0  0.23742956138158278  0.8477394434539242  0.2619732404783668  1.0000
  Cl  Cl21      1.0  0.0226637818511409  0.6307751958481433  0.6528223427948119  1.0000
  Cl  Cl22      1.0  0.9773362176783842  0.36922480467143753  0.3471776572063367  1.0000
  Cl  Cl23      1.0  0.01339592287684048  0.31936660308351184  0.9401993323653421  1.0000
  Cl  Cl24      1.0  0.9866040774735763  0.6806333974355937  0.059800667636360626  1.0000
  Br  Br1       1.0  0.161678615602649  0.10901314901930767  0.36453358866912233  1.0000
  Br  Br2       1.0  0.8383213848285482  0.8909868506937779  0.635466411332249  1.0000
  Br  Br3       1.0  0.07255922045144073  0.11037928155987588  0.2362138726375204  1.0000
  Br  Br4       1.0  0.9274407790780843  0.889620718959705  0.7637861273636282  1.0000
