data_image0
_chemical_formula_structural       H54C48N2O12P2S2Cl2
_chemical_formula_sum              "H54 C48 N2 O12 P2 S2 Cl2"
_cell_length_a       9.717736857252381
_cell_length_b       10.043129668875617
_cell_length_c       13.130148374615201
_cell_angle_alpha    103.01093524033806
_cell_angle_beta     100.38683600152545
_cell_angle_gamma    97.74965424940078

_space_group_name_H-M_alt    "P 1"
_space_group_IT_number       1

loop_
  _space_group_symop_operation_xyz
  'x, y, z'

loop_
  _atom_site_type_symbol
  _atom_site_label
  _atom_site_symmetry_multiplicity
  _atom_site_fract_x
  _atom_site_fract_y
  _atom_site_fract_z
  _atom_site_occupancy
  H   H1        1.0  0.6374295202781431  0.4604348550050462  0.3904825948345074  1.0000
  H   H2        1.0  0.36257047959106864  0.5395651445821125  0.6095174050386413  1.0000
  H   H3        1.0  0.7434424083026617  0.28430965661231933  0.29928167406740125  1.0000
  H   H4        1.0  0.25655759156655006  0.7156903429748394  0.7007183258057476  1.0000
  H   H5        1.0  0.5835776991071595  0.18166380706010063  0.3086711140491744  1.0000
  H   H6        1.0  0.4164223009042412  0.8183361935328645  0.6913288858267744  1.0000
  H   H7        1.0  0.6367264274012068  0.15578405679306687  0.1102394190363158  1.0000
  H   H8        1.0  0.363273572468005  0.8442159427940918  0.889760580836833  1.0000
  H   H9        1.0  0.46592219663417683  0.1877113842973192  0.1261367667876711  1.0000
  H   H10       1.0  0.5340778033772238  0.8122886162956459  0.8738632330882776  1.0000
  H   H11       1.0  0.722271090637026  0.39568290822823676  0.1196174306702419  1.0000
  H   H12       1.0  0.27772890923218596  0.604317091358922  0.8803825692029069  1.0000
  H   H13       1.0  0.5396786849239058  0.38182009191308725  0.058190140713812476  1.0000
  H   H14       1.0  0.4603213149453059  0.6181799076740713  0.9418098591593361  1.0000
  H   H15       1.0  0.22928652288877419  0.5690429586844286  0.07165086385773652  1.0000
  H   H16       1.0  0.7707134769804376  0.43095704090273  0.9283491360154122  1.0000
  H   H17       1.0  0.036679241005299706  0.707395266497799  0.08858512239826713  1.0000
  H   H18       1.0  0.9633207588639122  0.29260473308935975  0.9114148774748817  1.0000
  H   H19       1.0  0.09653699287061807  0.9582502845240186  0.18536255858462833  1.0000
  H   H20       1.0  0.9034630069985938  0.04174971506314015  0.8146374412885204  1.0000
  H   H21       1.0  0.3491625849880065  0.07121318672341288  0.2624155336573139  1.0000
  H   H22       1.0  0.6508374150233942  0.9287868138695524  0.7375844662186349  1.0000
  H   H23       1.0  0.5428170849337535  0.9317441719880614  0.24405529118005767  1.0000
  H   H24       1.0  0.4571829161076137  0.06825582860486143  0.7559447086997458  1.0000
  H   H25       1.0  0.836742446895924  0.9389850347295798  0.31363190576690847  1.0000
  H   H26       1.0  0.16325755400325417  0.061014964857536415  0.6863680941100949  1.0000
  H   H27       1.0  0.888916262651578  0.1364566090956524  0.23338450496071483  1.0000
  H   H28       1.0  0.11108373735982267  0.8635433914973127  0.766615494915234  1.0000
  H   H29       1.0  0.8722362654260242  0.09451418728192137  0.03710872256379348  1.0000
  H   H30       1.0  0.12776373458537674  0.9054858133110438  0.9628912773121554  1.0000
  H   H31       1.0  0.8005133899280447  0.8524220477830962  0.9198498748864349  1.0000
  H   H32       1.0  0.19948661016791458  0.14757795206660473  0.08015012578767287  1.0000
  H   H33       1.0  0.7428391560250623  0.6549184628029908  0.000925382671334963  1.0000
  H   H34       1.0  0.2571608442130858  0.3450815380525168  0.9990746180055728  1.0000
  H   H35       1.0  0.22052396725557208  0.2812311121864523  0.494906744695674  1.0000
  H   H36       1.0  0.7794760327558287  0.7187688884065129  0.5050932551802748  1.0000
  H   H37       1.0  0.32965164293629295  0.42639012127745607  0.17741438432476345  1.0000
  H   H38       1.0  0.6703483569329189  0.5736098783097026  0.8225856155483854  1.0000
  H   H39       1.0  0.46209840220683074  0.30074343694422134  0.549674728748673  1.0000
  H   H40       1.0  0.5379015978045699  0.6992565636487439  0.45032527112727594  1.0000
  H   H41       1.0  0.986636278464653  0.26020378482804585  0.4155498651089257  1.0000
  H   H42       1.0  0.013363721546747672  0.7397962157649194  0.5844501347670231  1.0000
  H   H43       1.0  0.7800711727026487  0.30285713944417053  0.6726586006328256  1.0000
  H   H44       1.0  0.21992882716656315  0.6971428601429882  0.32734139924032324  1.0000
  H   H45       1.0  0.9417632228977966  0.3837702119529062  0.6466736494978622  1.0000
  H   H46       1.0  0.05823677800138177  0.61622978763421  0.3533263503791412  1.0000
  H   H47       1.0  0.7811383977394307  0.3318475893987302  0.5423537102346015  1.0000
  H   H48       1.0  0.2188616022719699  0.668152411194235  0.4576462896413473  1.0000
  H   H49       1.0  0.6578060146598013  0.03673911764836723  0.5653339923283193  1.0000
  H   H50       1.0  0.3421939852094106  0.9632608819387914  0.4346660075448295  1.0000
  H   H51       1.0  0.6707910280699757  0.0949163577833104  0.44679047292891677  1.0000
  H   H52       1.0  0.32920897179923614  0.9050836418038484  0.553209526944232  1.0000
  H   H53       1.0  0.73457703015298  0.9388119420193674  0.46519568671024636  1.0000
  H   H54       1.0  0.26542296985842073  0.06118805857359803  0.5348043131657025  1.0000
  C   C1        1.0  0.571915048866978  0.3994012559404169  0.3123840726253199  1.0000
  C   C2        1.0  0.4280849512289813  0.600598743909284  0.6876159280487878  1.0000
  C   C3        1.0  0.6268625929405719  0.2636541733348005  0.27439867032660176  1.0000
  C   C4        1.0  0.3731374069286399  0.7363458262523581  0.7256013295465469  1.0000
  C   C5        1.0  0.5803606053343733  0.2303166236192779  0.15240593073534342  1.0000
  C   C6        1.0  0.4196393949037748  0.7696833772362296  0.8475940699415644  1.0000
  C   C7        1.0  0.6123610685601723  0.37271813391354314  0.12968368629736207  1.0000
  C   C8        1.0  0.38763893130903954  0.6272818656736154  0.8703163135757868  1.0000
  C   C9        1.0  0.3953021265083064  0.7431620367909317  0.1577787813279142  1.0000
  C   C10       1.0  0.6046978733609054  0.2568379627962269  0.8422212185452346  1.0000
  C   C11       1.0  0.2543367113403141  0.679124049678768  0.11280536642450947  1.0000
  C   C12       1.0  0.7456632887556451  0.3208759501709329  0.8871946342495982  1.0000
  C   C13       1.0  0.14701403253148793  0.7572143572864737  0.1228628938090005  1.0000
  C   C14       1.0  0.8529859674799127  0.24278564330649152  0.8771371060669484  1.0000
  C   C15       1.0  0.18066289653868225  0.8978959052857521  0.1773924768975389  1.0000
  C   C16       1.0  0.8193371033305296  0.10210409430140649  0.8226075229756098  1.0000
  C   C17       1.0  0.32281110946497843  0.9610207734127579  0.22065464383720695  1.0000
  C   C18       1.0  0.6771888905464223  0.03897922718020732  0.7793453560387419  1.0000
  C   C19       1.0  0.4314608613447687  0.8841050674200528  0.2110154162811142  1.0000
  C   C20       1.0  0.568539138524443  0.11589493216710596  0.7889845835920344  1.0000
  C   C21       1.0  0.785384335976151  0.7869147590789123  0.1603794600974002  1.0000
  C   C22       1.0  0.2146156638930609  0.21308524050824645  0.8396205397757486  1.0000
  C   C23       1.0  0.8258319055506571  0.9208721896384662  0.22738005091040495  1.0000
  C   C24       1.0  0.17416809446074358  0.07912781095449904  0.7726199489655439  1.0000
  C   C25       1.0  0.855848978993537  0.031404508607100284  0.18165482301079702  1.0000
  C   C26       1.0  0.14415102087567488  0.9685954909800584  0.8183451768623516  1.0000
  C   C27       1.0  0.8464093438181055  0.00766759871768355  0.07145501029910098  1.0000
  C   C28       1.0  0.15359065605110617  0.9923324008694749  0.9285449895740477  1.0000
  C   C29       1.0  0.806635393797717  0.8723779677184685  0.005776986576487254  1.0000
  C   C30       1.0  0.19336460607149483  0.12762203186869023  0.9942230132966615  1.0000
  C   C31       1.0  0.7749883342166974  0.761319638872442  0.05029720742752816  1.0000
  C   C32       1.0  0.22501166579470316  0.23868036172052315  0.9497027924484206  1.0000
  C   C33       1.0  0.41800167151576095  0.37459589184339226  0.321976009719857  1.0000
  C   C34       1.0  0.5819983284956397  0.6254041087495729  0.6780239901560918  1.0000
  C   C35       1.0  0.38534502029876855  0.33252805141769043  0.4117826488690343  1.0000
  C   C36       1.0  0.6146549795704431  0.6674719481694681  0.5882173510041143  1.0000
  C   C37       1.0  0.24495457063954906  0.31228558635831677  0.4248418164468568  1.0000
  C   C38       1.0  0.7550454302596291  0.6877144132287994  0.5751581834301465  1.0000
  C   C39       1.0  0.1333697554910754  0.33209984907354917  0.34887046165300784  1.0000
  C   C40       1.0  0.8666302443781364  0.6679001505136095  0.6511295382201409  1.0000
  C   C41       1.0  0.16567601622433065  0.3705586673024785  0.2581261181120064  1.0000
  C   C42       1.0  0.8343239837870702  0.6294413332904868  0.7418738817639425  1.0000
  C   C43       1.0  0.30620167912988683  0.3923994969927732  0.2464527203489272  1.0000
  C   C44       1.0  0.693798320739325  0.6076005025943854  0.7535472795242216  1.0000
  C   C45       1.0  0.8433562443402339  0.30722484634742236  0.6118264518943375  1.0000
  C   C46       1.0  0.15664375575572553  0.6927751535022787  0.3881735487797703  1.0000
  C   C47       1.0  0.7210411773885325  0.04299165012877723  0.5046949249378653  1.0000
  C   C48       1.0  0.2789588224806795  0.9570083494583814  0.4953050749352835  1.0000
  N   N1        1.0  0.5950660373772414  0.4701628985743387  0.22779275630138832  1.0000
  N   N2        1.0  0.4049339626341592  0.5298371020186265  0.7722072435745605  1.0000
  O   O1        1.0  0.6043219718265443  0.7200882170728697  0.34746485924776677  1.0000
  O   O2        1.0  0.39567802841160377  0.2799117837826378  0.6525351414291409  1.0000
  O   O3        1.0  0.49994480532622976  0.6620180486025248  0.14354828582991305  1.0000
  O   O4        1.0  0.5000551945429821  0.33798195098463396  0.8564517140432357  1.0000
  O   O5        1.0  0.7580777775376392  0.6717429752407147  0.2029846841602493  1.0000
  O   O6        1.0  0.24192222233157268  0.328257024346444  0.7970153157128995  1.0000
  O   O7        1.0  0.4954123232272549  0.3135515346257493  0.4841406172498157  1.0000
  O   O8        1.0  0.5045876767841458  0.686448465967216  0.5158593826261332  1.0000
  O   O9        1.0  0.9973574810381948  0.31662929863547934  0.3611856562104163  1.0000
  O   O10       1.0  0.002642518831017164  0.6833707009516794  0.6388143436627325  1.0000
  O   O11       1.0  0.9789340162291148  0.15214569797991634  0.4859177146734532  1.0000
  O   O12       1.0  0.021065983640097034  0.8478543016072423  0.5140822851996956  1.0000
  P   P1        1.0  0.6125167622077424  0.6359824937280081  0.24093229950589126  1.0000
  P   P2        1.0  0.38748323766146947  0.3640175058591506  0.7590677003672576  1.0000
  S   S1        1.0  0.8950717924232694  0.1413387877945768  0.5723095618635303  1.0000
  S   S2        1.0  0.10492820767268995  0.8586612120551242  0.42769043881057744  1.0000
  Cl  Cl1       1.0  0.02907123606396343  0.3916563949441701  0.16080338470466732  1.0000
  Cl  Cl2       1.0  0.9709287639474372  0.6083436056487951  0.8391966151712815  1.0000
