data_image0
_chemical_formula_structural       H32C26N4O10Cl4
_chemical_formula_sum              "H32 C26 N4 O10 Cl4"
_cell_length_a       7.520938007948445
_cell_length_b       9.30826311821491
_cell_length_c       11.091466770882912
_cell_angle_alpha    103.63658812308317
_cell_angle_beta     102.71190497524658
_cell_angle_gamma    96.12228651741671

_space_group_name_H-M_alt    "P 1"
_space_group_IT_number       1

loop_
  _space_group_symop_operation_xyz
  'x, y, z'

loop_
  _atom_site_type_symbol
  _atom_site_label
  _atom_site_symmetry_multiplicity
  _atom_site_fract_x
  _atom_site_fract_y
  _atom_site_fract_z
  _atom_site_occupancy
  H   H1        1.0  0.8416808242301637  0.7500275810030985  0.2743257259287789  1.0000
  H   H2        1.0  0.1583191753149423  0.24997241906835446  0.7256742741151856  1.0000
  H   H3        1.0  0.9891434783583999  0.6144340603352361  0.29630272738927377  1.0000
  H   H4        1.0  0.010856521186706082  0.38556593973621694  0.7036972726546908  1.0000
  H   H5        1.0  0.715136842948124  0.41020706742149976  0.21755887348102781  1.0000
  H   H6        1.0  0.28486315659698197  0.5897929326499534  0.7824411265629367  1.0000
  H   H7        1.0  0.7202142635432349  0.5144645427350283  0.10355088645885806  1.0000
  H   H8        1.0  0.27978573600187107  0.4855354573364248  0.8964491135851065  1.0000
  H   H9        1.0  0.4010716204043922  0.4631557054293833  0.14143268884781707  1.0000
  H   H10       1.0  0.5989283791407137  0.5368442946420698  0.8585673111961475  1.0000
  H   H11       1.0  0.48415542856532945  0.657424840701966  0.18322562723625682  1.0000
  H   H12       1.0  0.5158445709797764  0.34257515936948707  0.8167743728077078  1.0000
  H   H13       1.0  0.5036990979395427  0.458261911112289  0.36818014173389924  1.0000
  H   H14       1.0  0.49630090124749504  0.5417380886574651  0.6318198573509403  1.0000
  H   H15       1.0  0.3556428533668786  0.591896620782732  0.3569915814920897  1.0000
  H   H16       1.0  0.6443571473591442  0.4081033782036523  0.6430084185486491  1.0000
  H   H17       1.0  0.6247210775384886  0.7981703308877584  0.4231228053724995  1.0000
  H   H18       1.0  0.3752789220066172  0.20182966918369485  0.576877194671465  1.0000
  H   H19       1.0  0.6366017083582323  0.6952775945093701  0.5405302901915291  1.0000
  H   H20       1.0  0.3633982911868736  0.3047224055620829  0.45946970985243546  1.0000
  H   H21       1.0  0.9228490634357236  0.8270623959353975  0.6070042700878495  1.0000
  H   H22       1.0  0.07715093610938224  0.17293760413605547  0.39299572995611487  1.0000
  H   H23       1.0  0.9719752692628477  0.8828150462624933  0.4736557276690325  1.0000
  H   H24       1.0  0.02802473028225825  0.11718495380895971  0.526344272374932  1.0000
  H   H25       1.0  0.8538929402211612  0.5634012378409138  0.45684141298007214  1.0000
  H   H26       1.0  0.14610706065122323  0.4365987622253728  0.5431585870588533  1.0000
  H   H27       1.0  0.09361593172008599  0.7045391094375475  0.11699395544998419  1.0000
  H   H28       1.0  0.9063840691522984  0.29546089062873915  0.8830060445889414  1.0000
  H   H29       1.0  0.14042260559551392  0.9271587502419153  0.8225583784942349  1.0000
  H   H30       1.0  0.859577393949592  0.07284124982953753  0.1774416215497296  1.0000
  H   H31       1.0  0.5584717643250923  0.14905303048271326  0.30558001956351116  1.0000
  H   H32       1.0  0.4415282352200137  0.8509469695887398  0.6944199804804534  1.0000
  C   C1        1.0  0.8502105243754009  0.6407875242781791  0.2952054001278006  1.0000
  C   C2        1.0  0.149789475169705  0.35921247579327387  0.704794599916164  1.0000
  C   C3        1.0  0.6996158374965186  0.5199959979582536  0.19954368922624427  1.0000
  C   C4        1.0  0.30038416337586593  0.480004002108033  0.8004563108126813  1.0000
  C   C5        1.0  0.5077419145691067  0.5524069248865694  0.2089301436828016  1.0000
  C   C6        1.0  0.4922580863032777  0.4475930751797172  0.7910698563561238  1.0000
  C   C7        1.0  0.49069919853801913  0.5658660632236774  0.34542262971584137  1.0000
  C   C8        1.0  0.5093008008607253  0.4341339357678733  0.6545773703299365  1.0000
  C   C9        1.0  0.638862632805052  0.6880256217624215  0.4407188714409595  1.0000
  C   C10       1.0  0.3611373680673325  0.3119743783038649  0.559281128597966  1.0000
  C   C11       1.0  0.9695470391571902  0.7907490760758787  0.5194786244908338  1.0000
  C   C12       1.0  0.030452960387915565  0.20925092399557424  0.4805213755531307  1.0000
  C   C13       1.0  0.16372511025388548  0.7552442109202415  0.5591642414507579  1.0000
  C   C14       1.0  0.8362748891448589  0.24475578807130924  0.44083575859501983  1.0000
  C   C15       1.0  0.3380433903295082  0.05306098095596608  0.14781116095564628  1.0000
  C   C16       1.0  0.6619566090692361  0.9469390180355846  0.8521888390901315  1.0000
  C   C17       1.0  0.2608902371255706  0.925247646332136  0.18086710423078955  1.0000
  C   C18       1.0  0.7391097624195354  0.0747523537393172  0.8191328958131749  1.0000
  C   C19       1.0  0.1479812239040574  0.8021263629788846  0.09014131324860386  1.0000
  C   C20       1.0  0.8520187752829802  0.1978736367908693  0.9098586858362355  1.0000
  C   C21       1.0  0.10445422124527239  0.8052737954608463  0.9616511926497716  1.0000
  C   C22       1.0  0.8955457782998335  0.1947262046106068  0.03834880739419299  1.0000
  C   C23       1.0  0.17232265975955285  0.9280128353799932  0.9231438488762534  1.0000
  C   C24       1.0  0.827677339785553  0.07198716469145991  0.076856151167711  1.0000
  C   C25       1.0  0.28582928870695173  0.04895870170574729  0.01520911767985717  1.0000
  C   C26       1.0  0.7141707120190711  0.9510412972806371  0.9847908823608816  1.0000
  N   N1        1.0  0.8307948709417893  0.66241930437111  0.4305096080778408  1.0000
  N   N2        1.0  0.16920512860331666  0.33758069570034316  0.5694903919661238  1.0000
  N   N3        1.0  0.9852088812924373  0.6788297435707303  0.8658910288220041  1.0000
  N   N4        1.0  0.01479111825266857  0.32117025650072284  0.13410897122196055  1.0000
  O   O1        1.0  0.28285458772263405  0.8735512892712329  0.6217724133135081  1.0000
  O   O2        1.0  0.7171454131497504  0.12644871079505382  0.37822758672541756  1.0000
  O   O3        1.0  0.1922994568238147  0.622957007893542  0.5326614697330755  1.0000
  O   O4        1.0  0.8077005427212913  0.37704299217791115  0.467338530310889  1.0000
  O   O5        1.0  0.44820400570808905  0.17057328389460347  0.23055052209172655  1.0000
  O   O6        1.0  0.5517959951642953  0.8294267161716831  0.7694494779471989  1.0000
  O   O7        1.0  0.9307653535060018  0.5676902462638418  0.9004590867174952  1.0000
  O   O8        1.0  0.06923464603910434  0.43230975380761133  0.09954091332646939  1.0000
  O   O9        1.0  0.9427109906160388  0.6856187064068114  0.752167839137499  1.0000
  O   O10       1.0  0.05728900892906714  0.31438129366464157  0.24783216090646565  1.0000
  Cl  Cl1       1.0  0.3079979041296254  0.9262767871170623  0.34098468341707494  1.0000
  Cl  Cl2       1.0  0.692002096742759  0.07372321294922439  0.6590153166218506  1.0000
  Cl  Cl3       1.0  0.3724602215267088  0.1993698729661605  0.9677391648046633  1.0000
  Cl  Cl4       1.0  0.6275397793456755  0.800630127100126  0.03226083523426226  1.0000
