data_image0
_chemical_formula_structural       H48C60N12O16Cl4
_chemical_formula_sum              "H48 C60 N12 O16 Cl4"
_cell_length_a       15.297645622375393
_cell_length_b       6.719802750470482
_cell_length_c       13.846336786521512
_cell_angle_alpha    90.0
_cell_angle_beta     98.07725741964624
_cell_angle_gamma    90.0

_space_group_name_H-M_alt    "P 1"
_space_group_IT_number       1

loop_
  _space_group_symop_operation_xyz
  'x, y, z'

loop_
  _atom_site_type_symbol
  _atom_site_label
  _atom_site_symmetry_multiplicity
  _atom_site_fract_x
  _atom_site_fract_y
  _atom_site_fract_z
  _atom_site_occupancy
  H   H1        1.0  0.23279357132046882  0.3341490611227821  0.6469159115612148  1.0000
  H   H2        1.0  0.7672064289339477  0.8341490618318445  0.8530840882428866  1.0000
  H   H3        1.0  0.7672064292446045  0.6658509388072038  0.35308408825568893  1.0000
  H   H4        1.0  0.2327935709779582  0.16585093809814136  0.14691591157808878  1.0000
  H   H5        1.0  0.4453227678538727  0.3911047120863767  0.474974848618917  1.0000
  H   H6        1.0  0.5546772323686899  0.8911047113073001  0.025025151214860694  1.0000
  H   H7        1.0  0.5546772321544506  0.608895287843609  0.5250251519314962  1.0000
  H   H8        1.0  0.445322767543216  0.10889528862268565  0.9749748486061148  1.0000
  H   H9        1.0  0.3364006970046921  0.3899659792568358  0.32434751821357666  1.0000
  H   H10       1.0  0.6635993032178708  0.8899659784777593  0.1756524816202011  1.0000
  H   H11       1.0  0.6635993029072139  0.6100340206731499  0.6756524816073989  1.0000
  H   H12       1.0  0.33640069734720274  0.11003402145222654  0.8243475181967027  1.0000
  H   H13       1.0  0.2715188417464573  0.5988469497439123  0.8124429597417607  1.0000
  H   H14       1.0  0.7284811578547921  0.09884695052298884  0.6875570400664123  1.0000
  H   H15       1.0  0.7284811581654488  0.4011530501860735  0.18755704007921462  1.0000
  H   H16       1.0  0.27151884205711396  0.901153049406997  0.31244295975456304  1.0000
  H   H17       1.0  0.08252658545177641  0.6838690361377425  0.004662544371257419  1.0000
  H   H18       1.0  0.9174734142140363  0.18386903542868024  0.4953374561960298  1.0000
  H   H19       1.0  0.917473414556547  0.3161309637922432  0.9953374561791559  1.0000
  H   H20       1.0  0.08252658579428704  0.8161309645013055  0.5046625443543834  1.0000
  H   H21       1.0  0.2168682619427506  0.6823375313626538  0.18688975356173404  1.0000
  H   H22       1.0  0.7831317382798121  0.1823375306535915  0.31311024627204365  1.0000
  H   H23       1.0  0.7831317379691554  0.31766246856733193  0.8131102462592414  1.0000
  H   H24       1.0  0.2168682616320939  0.8176624692763942  0.6868897535489318  1.0000
  H   H25       1.0  0.3797124455323439  0.6635287649905828  0.24180802072802993  1.0000
  H   H26       1.0  0.6202875540370515  0.1635287642815204  0.2581919791098195  1.0000
  H   H27       1.0  0.6202875543795622  0.336471234939403  0.7581919790929456  1.0000
  H   H28       1.0  0.37971244587485453  0.8364712356484654  0.741808020711156  1.0000
  H   H29       1.0  0.48375020952927  0.6268818440697628  0.12428549343274034  1.0000
  H   H30       1.0  0.5162497906932927  0.1268818433607005  0.3757145064010373  1.0000
  H   H31       1.0  0.5162497910358034  0.3731181558602229  0.8757145063841634  1.0000
  H   H32       1.0  0.4837502092186133  0.8731181565692853  0.624285493419938  1.0000
  H   H33       1.0  0.4303288197413468  0.609055682432561  0.9440126028332668  1.0000
  H   H34       1.0  0.5696711799563199  0.10905568321163762  0.5559873977043442  1.0000
  H   H35       1.0  0.5696711802669765  0.39094431749742475  0.05598739771714646  1.0000
  H   H36       1.0  0.4303288200520035  0.8909443167183482  0.4440126028460691  1.0000
  H   H37       1.0  0.1140226697320692  0.5998381231826764  0.7260471037354449  1.0000
  H   H38       1.0  0.8859773298691801  0.09983812247361397  0.7739528960727283  1.0000
  H   H39       1.0  0.8859773301798368  0.4001618782354484  0.27395289608553053  1.0000
  H   H40       1.0  0.11402267004272591  0.9001618774563719  0.22604710374824719  1.0000
  H   H41       1.0  0.051171853790296845  0.7764088119453675  0.782791852811717  1.0000
  H   H42       1.0  0.9488281458109525  0.2764088127244441  0.7172081469964562  1.0000
  H   H43       1.0  0.9488281461216092  0.2235911879846182  0.21720814700925845  1.0000
  H   H44       1.0  0.05117185410095353  0.7235911872055416  0.28279185282451924  1.0000
  H   H45       1.0  0.03838239957333847  0.5195806394399817  0.8034576847575797  1.0000
  H   H46       1.0  0.9616176000279109  0.01958063873091925  0.6965423150505936  1.0000
  H   H47       1.0  0.9616176003385676  0.4804193604900042  0.1965423150633958  1.0000
  H   H48       1.0  0.038382399883995166  0.9804193611990666  0.30345768477038193  1.0000
  C   C1        1.0  0.22368665374602453  0.3579552792426219  0.39933165131824094  1.0000
  C   C2        1.0  0.7763133458233709  0.8579552784635452  0.10066834851960851  1.0000
  C   C3        1.0  0.7763133461658814  0.6420447221755028  0.6006683485027344  1.0000
  C   C4        1.0  0.22368665408853516  0.14204472146644045  0.8993316513013668  1.0000
  C   C5        1.0  0.19476360421821257  0.34196013861256774  0.4914453193222172  1.0000
  C   C6        1.0  0.8052363954476002  0.8419601378334911  0.008554681245070058  1.0000
  C   C7        1.0  0.8052363957901107  0.658039861317418  0.5085546812281961  1.0000
  C   C8        1.0  0.1947636045607232  0.15803986209649457  0.9914453193053432  1.0000
  C   C9        1.0  0.25566320440532836  0.34701652661407884  0.5764633856779376  1.0000
  C   C10       1.0  0.7443367959455056  0.8470165258350023  0.9235366148556016  1.0000
  C   C11       1.0  0.744336795602995  0.652983473315907  0.42353661487247557  1.0000
  C   C12       1.0  0.25566320406281773  0.15298347409498353  0.07646338569481166  1.0000
  C   C13       1.0  0.3448120621458567  0.364788214926156  0.5694349742541408  1.0000
  C   C14       1.0  0.6551879374553926  0.8647882141470794  0.9305650255540324  1.0000
  C   C15       1.0  0.6551879377660492  0.6352117850038298  0.4305650255668346  1.0000
  C   C16       1.0  0.34481206245651347  0.13521178578290638  0.06943497426694303  1.0000
  C   C17       1.0  0.37518210864604523  0.3789279558572938  0.4793271515983231  1.0000
  C   C18       1.0  0.6248178909233502  0.8789279565663561  0.020672848239526326  1.0000
  C   C19       1.0  0.6248178912658607  0.621072044072692  0.5206728482226524  1.0000
  C   C20       1.0  0.3751821089885559  0.12107204336362966  0.9793271515814491  1.0000
  C   C21       1.0  0.3142516734487756  0.3780038915312144  0.3952951525954762  1.0000
  C   C22       1.0  0.685748326773787  0.8780038922402766  0.10470484723830159  1.0000
  C   C23       1.0  0.6857483264631303  0.6219961083987714  0.6047048472254993  1.0000
  C   C24       1.0  0.31425167313811897  0.12199610768970906  0.8952951525826739  1.0000
  C   C25       1.0  0.1557823878837787  0.643443077208966  0.8805870560806068  1.0000
  C   C26       1.0  0.8442176117174706  0.1434430779880425  0.6194129437275664  1.0000
  C   C27       1.0  0.8442176120281273  0.3565569227210198  0.11941294374036865  1.0000
  C   C28       1.0  0.15578238819443543  0.8565569219419432  0.38058705609340915  1.0000
  C   C29       1.0  0.1453066674856476  0.66498901320982  0.9777507462668457  1.0000
  C   C30       1.0  0.8546933327687691  0.1649890139888966  0.5222492535372559  1.0000
  C   C31       1.0  0.8546933324262584  0.33501098672016577  0.02224925355412987  1.0000
  C   C32       1.0  0.14530666714313695  0.8350109859410892  0.4777507462837195  1.0000
  C   C33       1.0  0.23108076269709957  0.659001913365679  0.03385014032397975  1.0000
  C   C34       1.0  0.7689192375254631  0.15900191265661667  0.4661498595097979  1.0000
  C   C35       1.0  0.7689192372148065  0.34099808656430675  0.9661498594969958  1.0000
  C   C36       1.0  0.2310807623864429  0.8409980872733691  0.5338501403111775  1.0000
  C   C37       1.0  0.2629468769068651  0.6687558350853918  0.1339974463198412  1.0000
  C   C38       1.0  0.7370531226625303  0.1687558343763295  0.36600255351800826  1.0000
  C   C39       1.0  0.7370531230050409  0.3312441648445939  0.8660025535011343  1.0000
  C   C40       1.0  0.2629468772493757  0.8312441655536562  0.6339974463029673  1.0000
  C   C41       1.0  0.3534333328674994  0.6558414902418733  0.16461715060545692  1.0000
  C   C42       1.0  0.6465666673550633  0.15584149102094988  0.3353828492283208  1.0000
  C   C43       1.0  0.6465666670444067  0.3441585096881124  0.8353828492155185  1.0000
  C   C44       1.0  0.3534333325568427  0.8441585089090359  0.6646171505926548  1.0000
  C   C45       1.0  0.4134797999196109  0.6351707257629197  0.09694625476816217  1.0000
  C   C46       1.0  0.5865201996497844  0.1351707265419963  0.4030537450696872  1.0000
  C   C47       1.0  0.5865202000887124  0.36482927416706606  0.9030537457822511  1.0000
  C   C48       1.0  0.41347980026212156  0.8648292733879894  0.5969462547512882  1.0000
  C   C49       1.0  0.38420938449967107  0.6241072298895037  0.9968485186354398  1.0000
  C   C50       1.0  0.6157906151979956  0.12410723066858025  0.5031514819021712  1.0000
  C   C51       1.0  0.6157906155086522  0.3758927700404821  0.0031514819149734805  1.0000
  C   C52       1.0  0.38420938481032774  0.8758927692614056  0.49684851864824203  1.0000
  C   C53       1.0  0.2933569003333009  0.6350723151362159  0.9665968813341341  1.0000
  C   C54       1.0  0.7066431000175332  0.13507231442715353  0.5334031191994052  1.0000
  C   C55       1.0  0.7066430996750224  0.3649276847937699  0.03340311921627912  1.0000
  C   C56       1.0  0.29335690064395764  0.8649276855028322  0.4665968813469364  1.0000
  C   C57       1.0  0.08702717775673693  0.6348864510496677  0.7932726211036886  1.0000
  C   C58       1.0  0.9129728224976796  0.13488645034060537  0.7067273787004129  1.0000
  C   C59       1.0  0.9129728221551692  0.36511354888031805  0.20672737871728686  1.0000
  C   C60       1.0  0.08702717741422629  0.8651135495893804  0.2932726211205625  1.0000
  N   N1        1.0  0.10162053668811977  0.3214541036712367  0.5048597058769708  1.0000
  N   N2        1.0  0.8983794635662968  0.8214541043802991  0.9951402939271308  1.0000
  N   N3        1.0  0.8983794638769537  0.6785458962587491  0.49514029393993286  1.0000
  N   N4        1.0  0.10162053634560912  0.1785458970378256  0.004859705893844835  1.0000
  N   N5        1.0  0.4079139080299945  0.37242565934316757  0.6583338249966371  1.0000
  N   N6        1.0  0.5920860915712548  0.8724256600522299  0.8416661748115359  1.0000
  N   N7        1.0  0.5920860918819114  0.6275743405868182  0.34166617482433836  1.0000
  N   N8        1.0  0.4079139083406512  0.12757433987775588  0.15833382500943938  1.0000
  N   N9        1.0  0.245353490109463  0.6271466836887346  0.8744844758887215  1.0000
  N   N10       1.0  0.754646510241371  0.12714668297967224  0.6255155246448179  1.0000
  N   N11       1.0  0.7546465098988603  0.3728533162412512  0.12551552466169172  1.0000
  N   N12       1.0  0.24535348976695234  0.8728533169503134  0.37448447590559547  1.0000
  O   O1        1.0  0.046311744151173506  0.28433162861309097  0.4329957082433216  1.0000
  O   O2        1.0  0.9536882560713893  0.7843316293221533  0.06700429159045605  1.0000
  O   O3        1.0  0.9536882557607326  0.7156683713168948  0.5670042915776538  1.0000
  O   O4        1.0  0.04631174384051681  0.21566837060783248  0.9329957082305195  1.0000
  O   O5        1.0  0.08343413799678465  0.3418207431518997  0.5890484581134605  1.0000
  O   O6        1.0  0.9165658622576321  0.8418207438609621  0.910951541690641  1.0000
  O   O7        1.0  0.9165658619151213  0.658179256778086  0.4109515417075149  1.0000
  O   O8        1.0  0.08343413830744134  0.15817925606902367  0.08904845812626275  1.0000
  O   O9        1.0  0.3790293365803527  0.382968592317657  0.7379073048809716  1.0000
  O   O10       1.0  0.620970663117314  0.8829685915385804  0.7620926956566394  1.0000
  O   O11       1.0  0.6209706634279706  0.6170314076123288  0.2620926956694416  1.0000
  O   O12       1.0  0.3790293368910094  0.11703140839140537  0.23790730489377387  1.0000
  O   O13       1.0  0.48771805772363924  0.3695471462798718  0.6502719723114998  1.0000
  O   O14       1.0  0.5122819426271947  0.8695471455007953  0.8497280282220394  1.0000
  O   O15       1.0  0.5122819421882667  0.6304528536501139  0.34972802750947557  1.0000
  O   O16       1.0  0.48771805803429596  0.13045285442919055  0.15027197232430214  1.0000
  Cl  Cl1       1.0  0.15592155217378545  0.355636461179263  0.2901632107643794  1.0000
  Cl  Cl2       1.0  0.8440784480487773  0.8556364604001865  0.20983678906939834  1.0000
  Cl  Cl3       1.0  0.8440784477381205  0.6443635387507228  0.7098367890565961  1.0000
  Cl  Cl4       1.0  0.15592155186312875  0.14436353952979938  0.790163210751577  1.0000
