data_image0
_chemical_formula_structural       H72C148N56Cl8
_chemical_formula_sum              "H72 C148 N56 Cl8"
_cell_length_a       24.29206152409521
_cell_length_b       6.442738452868909
_cell_length_c       21.523597582513194
_cell_angle_alpha    90.0
_cell_angle_beta     101.00044110646333
_cell_angle_gamma    90.0

_space_group_name_H-M_alt    "P 1"
_space_group_IT_number       1

loop_
  _space_group_symop_operation_xyz
  'x, y, z'

loop_
  _atom_site_type_symbol
  _atom_site_label
  _atom_site_symmetry_multiplicity
  _atom_site_fract_x
  _atom_site_fract_y
  _atom_site_fract_z
  _atom_site_occupancy
  H   H1        1.0  0.5063319042268933  0.5329091480457556  0.2720159184574898  1.0000
  H   H2        1.0  0.49366809578316806  0.03290914904446985  0.22798408167888462  1.0000
  H   H3        1.0  0.49366809599320133  0.46709085150895097  0.7279840818133548  1.0000
  H   H4        1.0  0.5063319040251979  0.9670908520623718  0.7720159185915356  1.0000
  H   H5        1.0  0.557175624836562  0.5324558796069756  0.34579583792045065  1.0000
  H   H6        1.0  0.44282437517349943  0.03245587905355479  0.15420416221592376  1.0000
  H   H7        1.0  0.44282437538353275  0.46754412149986607  0.654204162350394  1.0000
  H   H8        1.0  0.5571756245552144  0.9675441205011519  0.8457958375811937  1.0000
  H   H9        1.0  0.12332848698098797  0.10253539001041324  0.25271094592368415  1.0000
  H   H10       1.0  0.8766715130290734  0.6025353905638341  0.24728905421269026  1.0000
  H   H11       1.0  0.8766715131594547  0.8974646095442934  0.7472890538738578  1.0000
  H   H12       1.0  0.12332848677929253  0.3974646105430076  0.7527109460577299  1.0000
  H   H13       1.0  0.32276306134430466  0.047024204414986275  0.22656656508664277  1.0000
  H   H14       1.0  0.6772369385861047  0.5470242049684071  0.2734334345764288  1.0000
  H   H15       1.0  0.677236938796138  0.9529757951397204  0.7734334347108993  1.0000
  H   H16       1.0  0.3227630611426092  0.4529757945862995  0.7265665652206886  1.0000
  H   H17       1.0  0.1537215919414207  0.08825823897085178  0.3688580756636661  1.0000
  H   H18       1.0  0.8462784080686407  0.5882582379721375  0.1311419244727083  1.0000
  H   H19       1.0  0.8462784081990218  0.9117417621359898  0.6311419241338758  1.0000
  H   H20       1.0  0.1537215917397253  0.41174176158256903  0.8688580757977118  1.0000
  H   H21       1.0  0.3538756344415122  0.03600022439165113  0.34340937527456794  1.0000
  H   H22       1.0  0.6461243655685492  0.5360002249450719  0.15659062486180647  1.0000
  H   H23       1.0  0.6461243653668538  0.9639997751630555  0.6565906249958523  1.0000
  H   H24       1.0  0.3538756345718934  0.4639997761617697  0.8434093749357354  1.0000
  H   H25       1.0  0.2303873735115034  0.05906230289863088  0.4624270832842353  1.0000
  H   H26       1.0  0.7696126264189058  0.5590623018999167  0.03757291637883633  1.0000
  H   H27       1.0  0.7696126266289391  0.9409376982082107  0.5375729165133066  1.0000
  H   H28       1.0  0.23038737330980802  0.44093769765478996  0.9624270834182812  1.0000
  H   H29       1.0  0.3296371106638668  0.034510002482095785  0.4495955898699478  1.0000
  H   H30       1.0  0.6703628893461946  0.5345100014833816  0.050404410266426655  1.0000
  H   H31       1.0  0.6703628895562279  0.9654899970726107  0.5504044104008969  1.0000
  H   H32       1.0  0.32963711038251925  0.4654899980713251  0.9495955895306907  1.0000
  H   H33       1.0  0.09263275264173527  0.10632943662255147  0.13708409137228983  1.0000
  H   H34       1.0  0.9073672472886741  0.6063294356238372  0.36291590829078185  1.0000
  H   H35       1.0  0.9073672474987073  0.89367056448429  0.8629159084252522  1.0000
  H   H36       1.0  0.09263275285176857  0.39367056393086935  0.6370840915067602  1.0000
  H   H37       1.0  0.21495931354259545  0.06522273767187955  0.01607243749400476  1.0000
  H   H38       1.0  0.7850406864674659  0.5652227382253003  0.4839275626423696  1.0000
  H   H39       1.0  0.7850406862657705  0.9347772618828271  0.9839275627764154  1.0000
  H   H40       1.0  0.21495931367297663  0.4347772628815412  0.5160724371551723  1.0000
  H   H41       1.0  0.2921824227082218  0.052659019527469104  0.11038469122194501  1.0000
  H   H42       1.0  0.7078175772221875  0.5526590200808899  0.3896153084411267  1.0000
  H   H43       1.0  0.7078175774322206  0.9473409800272374  0.8896153085755968  1.0000
  H   H44       1.0  0.2921824225065264  0.4473409794738167  0.6103846913559908  1.0000
  H   H45       1.0  0.11592256257353088  0.09710179213024298  0.029796219189843303  1.0000
  H   H46       1.0  0.8840774373568785  0.5971017911315287  0.4702037804732283  1.0000
  H   H47       1.0  0.8840774375669117  0.9028982089765986  0.9702037806076986  1.0000
  H   H48       1.0  0.11592256237183549  0.40289820842317786  0.5297962193238892  1.0000
  H   H49       1.0  0.9306231114942235  0.11840124747890667  0.36305481284112673  1.0000
  H   H50       1.0  0.06937688851583797  0.6184012480323275  0.13694518729524768  1.0000
  H   H51       1.0  0.06937688872587125  0.8815987520758  0.636945187429718  1.0000
  H   H52       1.0  0.930623111212876  0.38159875307451413  0.8630548125018698  1.0000
  H   H53       1.0  0.9624087862027726  0.21174015676401342  0.44057409301093  1.0000
  H   H54       1.0  0.0375912137276367  0.7117401573174341  0.05942590665214165  1.0000
  H   H55       1.0  0.037591213937669996  0.7882598427906932  0.559425906786612  1.0000
  H   H56       1.0  0.9624087860010773  0.2882598422372724  0.9405740931449758  1.0000
  H   H57       1.0  0.9634045612455988  0.9410867404217081  0.42275732285037665  1.0000
  H   H58       1.0  0.03659543876446269  0.4410867398682873  0.07724267728599772  1.0000
  H   H59       1.0  0.03659543889484388  0.05891326068513354  0.5772426769471652  1.0000
  H   H60       1.0  0.9634045610439033  0.5589132596864194  0.9227573229844225  1.0000
  H   H61       1.0  0.5020537870424618  0.985460320397269  0.5968746341681741  1.0000
  H   H62       1.0  0.49794621289628543  0.48546032139598316  0.9031253657634137  1.0000
  H   H63       1.0  0.49794621309798076  0.014539679157437625  0.40312536562936774  1.0000
  H   H64       1.0  0.5020537868324285  0.5145396797108585  0.09687463403370383  1.0000
  H   H65       1.0  0.4395475186045499  0.8507650760771195  0.6071600464037461  1.0000
  H   H66       1.0  0.5604524814138494  0.35076507707583365  0.8928399540011445  1.0000
  H   H67       1.0  0.5604524812038161  0.14923492347758716  0.3928399538666741  1.0000
  H   H68       1.0  0.4395475188062452  0.6492349240310079  0.10716004626970028  1.0000
  H   H69       1.0  0.4394063760396055  0.12746723710851682  0.6018488145665316  1.0000
  H   H70       1.0  0.5605936238991417  0.6274672376619377  0.8981511853650562  1.0000
  H   H71       1.0  0.5605936241008371  0.8725327624461897  0.3981511852310104  1.0000
  H   H72       1.0  0.4394063759092242  0.37253276189276896  0.101848814905364  1.0000
  C   C1        1.0  0.5506715376946608  0.534946135903637  0.29414217538516574  1.0000
  C   C2        1.0  0.4493284622357485  0.034946136902351314  0.2058578242779059  1.0000
  C   C3        1.0  0.4493284624457819  0.4650538636510695  0.7058578244123762  1.0000
  C   C4        1.0  0.5506715374929653  0.9650538642044902  0.7941421755192116  1.0000
  C   C5        1.0  0.16506875464095347  0.5896725030500475  0.2827260616143098  1.0000
  C   C6        1.0  0.8349312452894557  0.08967250249662669  0.21727393804876183  1.0000
  C   C7        1.0  0.8349312454994892  0.41032749805679414  0.7172739381832322  1.0000
  C   C8        1.0  0.16506875443925806  0.9103274970580799  0.7827260617483557  1.0000
  C   C9        1.0  0.19795257097357224  0.5785771077421458  0.23305703318104196  1.0000
  C   C10       1.0  0.802047428956837  0.07857710874085995  0.26694296648202964  1.0000
  C   C11       1.0  0.8020474291668703  0.4214228918125609  0.7669429666165  1.0000
  C   C12       1.0  0.19795257077187683  0.9214228908138467  0.7330570333150879  1.0000
  C   C13       1.0  0.19188910286832278  0.5773021390219205  0.34764306942815626  1.0000
  C   C14       1.0  0.8081108971417387  0.0773021384684997  0.15235693070821812  1.0000
  C   C15       1.0  0.8081108968603912  0.4226978620849211  0.6523569303689611  1.0000
  C   C16       1.0  0.1918891030783561  0.9226978610862069  0.8476430695626266  1.0000
  C   C17       1.0  0.28518056757492816  0.5554659227872922  0.31535583972694214  1.0000
  C   C18       1.0  0.7148194324351332  0.05546592378600645  0.18464416040943227  1.0000
  C   C19       1.0  0.7148194322334378  0.44453407676741435  0.6846441605434781  1.0000
  C   C20       1.0  0.2851805677053093  0.9445340773208352  0.8153558393881097  1.0000
  C   C21       1.0  0.2573014601722264  0.5624606518655668  0.24898282541195285  1.0000
  C   C22       1.0  0.7426985398378351  0.062460651312146016  0.2510171747244215  1.0000
  C   C23       1.0  0.7426985400478684  0.4375393476891397  0.7510171748588919  1.0000
  C   C24       1.0  0.2573014598908788  0.9375393482425606  0.7489828250726959  1.0000
  C   C25       1.0  0.2529526475495311  0.5591949784017262  0.3639644455063945  1.0000
  C   C26       1.0  0.7470473524605302  0.05919497940044035  0.1360355546299799  1.0000
  C   C27       1.0  0.7470473526705635  0.4408050211529804  0.6360355547644502  1.0000
  C   C28       1.0  0.25295264726818356  0.9408050217064012  0.8639644451671374  1.0000
  C   C29       1.0  0.20248793468812504  0.5747887109014931  0.1280118073611039  1.0000
  C   C30       1.0  0.7975120653219364  0.07478871034807226  0.3719881927752705  1.0000
  C   C31       1.0  0.7975120654523176  0.42521128865321356  0.871988192436438  1.0000
  C   C32       1.0  0.2024879344864296  0.9252112892066344  0.6280118074951497  1.0000
  C   C33       1.0  0.08036309825300662  0.6235910380951402  0.31212751426027774  1.0000
  C   C34       1.0  0.9196369017570548  0.12359103909385435  0.18787248587609667  1.0000
  C   C35       1.0  0.919636901887436  0.3764089614595664  0.6878724855372642  1.0000
  C   C36       1.0  0.08036309805131121  0.8764089620129873  0.8121275143943236  1.0000
  C   C37       1.0  0.10706346471653092  0.6079247029275135  0.3772384495997163  1.0000
  C   C38       1.0  0.8929365352935305  0.10792470237409277  0.12276155053665809  1.0000
  C   C39       1.0  0.8929365355035638  0.39207529817932807  0.6227615506711284  1.0000
  C   C40       1.0  0.10706346443518337  0.8920752971806138  0.8772384492604594  1.0000
  C   C41       1.0  0.1745295550703087  0.5768907332168595  0.06311520325297656  1.0000
  C   C42       1.0  0.8254704449397526  0.07689073421557374  0.43688479688339776  1.0000
  C   C43       1.0  0.8254704447380573  0.42310926633784707  0.9368847970174435  1.0000
  C   C44       1.0  0.174529555280342  0.9231092668912679  0.5631152033874468  1.0000
  C   C45       1.0  0.3660869180358735  0.5324888593719551  0.3893421725510425  1.0000
  C   C46       1.0  0.6339130818945358  0.032488858818534284  0.11065782711202916  1.0000
  C   C47       1.0  0.6339130821045691  0.46751114173488656  0.6106578272464995  1.0000
  C   C48       1.0  0.36608691783417807  0.9675111407361724  0.8893421726850883  1.0000
  C   C49       1.0  0.33364163087441623  0.530603494928115  0.4381038824536793  1.0000
  C   C50       1.0  0.666358369055993  0.03060349437469425  0.061896117209392344  1.0000
  C   C51       1.0  0.6663583692660263  0.46939650462659155  0.5618961173438627  1.0000
  C   C52       1.0  0.33364163067272085  0.9693965051800123  0.9381038825877251  1.0000
  C   C53       1.0  0.07279893161969155  0.6204644887019966  0.42425835243878623  1.0000
  C   C54       1.0  0.9272010683903698  0.12046448814857576  0.07574164769758815  1.0000
  C   C55       1.0  0.9272010681886744  0.37953551240484507  0.575741647831634  1.0000
  C   C56       1.0  0.07279893182972486  0.8795355114061308  0.9242583525732566  1.0000
  C   C57       1.0  0.26214405949575736  0.5591506540818598  0.14420901687217047  1.0000
  C   C58       1.0  0.7378559405143041  0.05915065508057403  0.3557909832642039  1.0000
  C   C59       1.0  0.7378559406446852  0.4408493454728468  0.8557909829253714  1.0000
  C   C60       1.0  0.262144059294062  0.9408493444741326  0.6442090170062164  1.0000
  C   C61       1.0  0.3594388814720241  0.503887606760506  0.5031953913630823  1.0000
  C   C62       1.0  0.6405611184667231  0.0038876062070852513  0.9968046085685055  1.0000
  C   C63       1.0  0.6405611186684186  0.49611239279420055  0.4968046084344596  1.0000
  C   C64       1.0  0.3594388812619908  0.9961123933476214  0.0031953912286120244  1.0000
  C   C65       1.0  0.2952907799329703  0.5501198917087432  0.09620899256798912  1.0000
  C   C66       1.0  0.704709220077091  0.05011989115532241  0.4037910075683852  1.0000
  C   C67       1.0  0.7047092202074723  0.4498801078459634  0.9037910072295529  1.0000
  C   C68       1.0  0.29529077973127493  0.9498801083993841  0.596208992702035  1.0000
  C   C69       1.0  0.02093121503859574  0.6508121229308758  0.2963067009125202  1.0000
  C   C70       1.0  0.9790687849714657  0.15081212237745484  0.20369329922385424  1.0000
  C   C71       1.0  0.979068785181499  0.3491878766238309  0.7036932993583246  1.0000
  C   C72       1.0  0.02093121483690034  0.8491878771772517  0.7963067010465661  1.0000
  C   C73       1.0  0.4259546208973694  0.5138948141726415  0.40301228065563344  1.0000
  C   C74       1.0  0.5740453791126919  0.013894813619220727  0.09698771948074104  1.0000
  C   C75       1.0  0.5740453792430731  0.48610518538206504  0.5969877191419085  1.0000
  C   C76       1.0  0.4259546211074028  0.9861051859354859  0.9030122807901036  1.0000
  C   C77       1.0  0.20957153728861708  0.07672383003222587  0.3011287281953969  1.0000
  C   C78       1.0  0.7904284626417923  0.5767238290335116  0.19887127146767478  1.0000
  C   C79       1.0  0.7904284624400968  0.9232761710746158  0.6988712716017206  1.0000
  C   C80       1.0  0.20957153749865035  0.4232761705211949  0.8011287283298673  1.0000
  C   C81       1.0  0.26724398321280396  0.06125260289345936  0.29344114160248547  1.0000
  C   C82       1.0  0.7327560167972575  0.5612526018947451  0.20655885853388892  1.0000
  C   C83       1.0  0.7327560165159098  0.9387473966612472  0.7065588581946319  1.0000
  C   C84       1.0  0.2672439834228373  0.43874739765996146  0.7934411417369557  1.0000
  C   C85       1.0  0.16688993037827518  0.08927412841722307  0.247146685097277  1.0000
  C   C86       1.0  0.8331100695521342  0.5892741289706439  0.25285331456579463  1.0000
  C   C87       1.0  0.8331100697621674  0.9107258711374836  0.752853314700265  1.0000
  C   C88       1.0  0.16688993017657974  0.4107258705840627  0.7471466852313228  1.0000
  C   C89       1.0  0.236658030019362  0.06871184718089432  0.1783627948088641  1.0000
  C   C90       1.0  0.7633419699110473  0.5687118461821801  0.3216372048542075  1.0000
  C   C91       1.0  0.7633419697093519  0.9312881539259473  0.8216372049882533  1.0000
  C   C92       1.0  0.23665803022939533  0.4312881533725265  0.6783627949433344  1.0000
  C   C93       1.0  0.17900274126321747  0.08408975685777749  0.18602538275418093  1.0000
  C   C94       1.0  0.8209972587468439  0.5840897558590632  0.31397461738219345  1.0000
  C   C95       1.0  0.8209972585451485  0.9159102442490641  0.8139746175162392  1.0000
  C   C96       1.0  0.17900274139359867  0.41591024369564333  0.6860253824153485  1.0000
  C   C97       1.0  0.27927230945427667  0.058485590057161196  0.2322568895294477  1.0000
  C   C98       1.0  0.7207276905557847  0.558485590610582  0.2677431106069267  1.0000
  C   C99       1.0  0.7207276907658182  0.9415144094975454  0.7677431107413971  1.0000
  C   C100      1.0  0.27927230925258123  0.44151440894412464  0.7322568896634936  1.0000
  C   C101      1.0  0.19733737193039746  0.07679134014507336  0.3632924076577847  1.0000
  C   C102      1.0  0.8026626280000118  0.5767913406984941  0.13670759200528693  1.0000
  C   C103      1.0  0.8026626282100451  0.9232086594096331  0.6367075921397573  1.0000
  C   C104      1.0  0.19733737214043076  0.42320865885621245  0.863292407792255  1.0000
  C   C105      1.0  0.31016445542640164  0.047949193073705806  0.3486118195431535  1.0000
  C   C106      1.0  0.6898355445836598  0.5479491920749916  0.15138818059322087  1.0000
  C   C107      1.0  0.6898355447936931  0.9520508080331358  0.6513881807276912  1.0000
  C   C108      1.0  0.3101644552247062  0.452050807479715  0.8486118196771993  1.0000
  C   C109      1.0  0.2400278723839592  0.061865131250596485  0.41515414563218045  1.0000
  C   C110      1.0  0.7599721276261022  0.5618651318040173  0.08484585450419392  1.0000
  C   C111      1.0  0.7599721273447547  0.9381348683041101  0.584845854164937  1.0000
  C   C112      1.0  0.2400278725939925  0.4381348677506893  0.9151541457666508  1.0000
  C   C113      1.0  0.29668563328389425  0.04783177095490738  0.40781967316149015  1.0000
  C   C114      1.0  0.7033143667261671  0.5478317715083282  0.09218032697488422  1.0000
  C   C115      1.0  0.7033143668565484  0.9521682285997992  0.5921803266360518  1.0000
  C   C116      1.0  0.2966856334939275  0.4521682280463784  0.9078196732959604  1.0000
  C   C117      1.0  0.13602636688645706  0.09408134203090135  0.13089424675710795  1.0000
  C   C118      1.0  0.8639736331236044  0.5940813425843221  0.36910575337926643  1.0000
  C   C119      1.0  0.8639736332539856  0.9059186575238053  0.869105753040434  1.0000
  C   C120      1.0  0.13602636668476165  0.40591865852251946  0.6308942468911538  1.0000
  C   C121      1.0  0.20580337357184267  0.07303945262444364  0.06371655411192509  1.0000
  C   C122      1.0  0.7941966264382188  0.5730394516257294  0.4362834460244493  1.0000
  C   C123      1.0  0.7941966261568713  0.926960548482398  0.9362834456851925  1.0000
  C   C124      1.0  0.20580337378187596  0.4269605479289772  0.5637165542463954  1.0000
  C   C125      1.0  0.24857676445897098  0.06421232881427628  0.11599785498803872  1.0000
  C   C126      1.0  0.7514232355510904  0.564212329367697  0.3840021451483357  1.0000
  C   C127      1.0  0.751423235349395  0.9357876707404303  0.8840021452823815  1.0000
  C   C128      1.0  0.24857676458935216  0.4357876717391445  0.6159978546492063  1.0000
  C   C129      1.0  0.14919549289919165  0.08880625283573679  0.07146166221670845  1.0000
  C   C130      1.0  0.8508045070312177  0.5888062518370226  0.4285383374463632  1.0000
  C   C131      1.0  0.8508045068295222  0.9111937482711048  0.928538337580409  1.0000
  C   C132      1.0  0.14919549310922495  0.41119374771768397  0.5714616623511788  1.0000
  C   C133      1.0  0.018462104319579026  0.12341785807647142  0.3828165763027418  1.0000
  C   C134      1.0  0.9815378956904823  0.6234178570777572  0.11718342383363259  1.0000
  C   C135      1.0  0.9815378954887869  0.8765821414782351  0.6171834239676784  1.0000
  C   C136      1.0  0.018462104529612326  0.37658214247694943  0.8828165764372121  1.0000
  C   C137      1.0  0.965646797327316  0.09795019379049755  0.4033415408753491  1.0000
  C   C138      1.0  0.03435320268274539  0.5979501927917834  0.09665845926102526  1.0000
  C   C139      1.0  0.03435320248104998  0.902049807316344  0.5966584593950711  1.0000
  C   C140      1.0  0.9656467975373494  0.4020498067629233  0.9033415410098194  1.0000
  C   C141      1.0  0.45601976389354093  0.9842818354943751  0.5848955999153226  1.0000
  C   C142      1.0  0.5439802360452062  0.4842818364930893  0.9151044000162651  1.0000
  C   C143      1.0  0.5439802362469017  0.01571816406033152  0.41510439988221937  1.0000
  C   C144      1.0  0.4560197636835076  0.5157181646137523  0.08489559978085227  1.0000
  C   C145      1.0  0.4388382965856027  0.9712420201092588  0.5169465748308908  1.0000
  C   C146      1.0  0.5611617033531444  0.47124202110797303  0.9830534251006969  1.0000
  C   C147      1.0  0.5611617032227633  0.028757979445447765  0.4830534254395295  1.0000
  C   C148      1.0  0.43883829678729813  0.5287579799988685  0.016946574696844966  1.0000
  N   N1        1.0  0.17113894270044652  0.5852517043154167  0.1720840599066025  1.0000
  N   N2        1.0  0.8288610573096148  0.0852517037619959  0.3279159402297719  1.0000
  N   N3        1.0  0.8288610574399962  0.4147482952392899  0.8279159398909394  1.0000
  N   N4        1.0  0.17113894249875108  0.9147482957927107  0.6720840600406482  1.0000
  N   N5        1.0  0.16218848105339742  0.5838318049873714  0.39434579846744355  1.0000
  N   N6        1.0  0.837811518956664  0.08383180598608565  0.1056542016689308  1.0000
  N   N7        1.0  0.8378115191666973  0.41616819456733517  0.6056542018034011  1.0000
  N   N8        1.0  0.16218848077204992  0.916168193568621  0.8943457981281867  1.0000
  N   N9        1.0  0.2779694896463777  0.5458041647545289  0.4251557904786357  1.0000
  N   N10       1.0  0.7220305103636837  0.045804164201108  0.07484420965773862  1.0000
  N   N11       1.0  0.722030510573717  0.4541958363523128  0.574844209792209  1.0000
  N   N12       1.0  0.2779694893650302  0.9541958353535985  0.9251557901393788  1.0000
  N   N13       1.0  0.10909880997422615  0.6131074028375388  0.2657028879279332  1.0000
  N   N14       1.0  0.8909011899561832  0.11310740383625306  0.2342971117351385  1.0000
  N   N15       1.0  0.8909011901662163  0.3868925967171677  0.7342971118696088  1.0000
  N   N16       1.0  0.10909880977253074  0.8868925972705886  0.7657028880619791  1.0000
  N   N17       1.0  0.3414689819010182  0.5445184769898312  0.32873938441910383  1.0000
  N   N18       1.0  0.6585310180293911  0.044518476436410444  0.1712606152439678  1.0000
  N   N19       1.0  0.6585310178276956  0.4554815241170104  0.6712606153780136  1.0000
  N   N20       1.0  0.3414689821110516  0.9554815231182961  0.8287393845535742  1.0000
  N   N21       1.0  0.28890291774277277  0.5530146763001765  0.2042562573226402  1.0000
  N   N22       1.0  0.7110970822672886  0.05301467574675575  0.29574374281373417  1.0000
  N   N23       1.0  0.7110970820655933  0.4469853248066651  0.79574374294778  1.0000
  N   N24       1.0  0.2889029179528061  0.9469853238079509  0.7042562574571105  1.0000
  N   N25       1.0  0.041013910110486454  0.6325850955792208  0.4584447272433458  1.0000
  N   N26       1.0  0.9589860898199228  0.1325850950258  0.04155527241972583  1.0000
  N   N27       1.0  0.958986090029956  0.3674149055276208  0.5415552725541962  1.0000
  N   N28       1.0  0.04101390990879102  0.8674149045289066  0.9584447273773915  1.0000
  N   N29       1.0  0.15291363035757788  0.5742912733563491  0.009860837057531043  1.0000
  N   N30       1.0  0.8470863695728315  0.07429127280292826  0.4901391626055406  1.0000
  N   N31       1.0  0.8470863697828647  0.42570872619835753  0.990139162740011  1.0000
  N   N32       1.0  0.15291363056761118  0.9257087267517783  0.5098608371920014  1.0000
  N   N33       1.0  0.37940400769332455  0.4757890239413653  0.5561882130404758  1.0000
  N   N34       1.0  0.6205959922454226  0.9757890244947861  0.9438117868911119  1.0000
  N   N35       1.0  0.6205959925267701  0.5242109756133413  0.4438117872303689  1.0000
  N   N36       1.0  0.37940400789501993  0.02421097661205553  0.05618821290642998  1.0000
  N   N37       1.0  0.32178083610925723  0.5437772719828403  0.05645786785240763  1.0000
  N   N38       1.0  0.6782191639008043  0.04377727142941942  0.44354213228396683  1.0000
  N   N39       1.0  0.6782191641108375  0.45622272912400136  0.943542132418437  1.0000
  N   N40       1.0  0.32178083590756174  0.9562227281252871  0.5564578679864535  1.0000
  N   N41       1.0  0.9724596827874823  0.6736626392256112  0.286675155086877  1.0000
  N   N42       1.0  0.02754031722257909  0.17366263867219034  0.21332484504949736  1.0000
  N   N43       1.0  0.027540316941231557  0.32633736032909544  0.7133248447102404  1.0000
  N   N44       1.0  0.9724596829975157  0.8263373608825162  0.7866751552213473  1.0000
  N   N45       1.0  0.4745233900265956  0.49303509730175793  0.413043737125887  1.0000
  N   N46       1.0  0.5254766099834658  0.9930350978551787  0.08695626301048742  1.0000
  N   N47       1.0  0.5254766097817704  0.5069649022529487  0.5869562631445333  1.0000
  N   N48       1.0  0.47452339015697675  0.006964901699527836  0.9130437367870544  1.0000
  N   N49       1.0  0.06092877729338072  0.14447392002782877  0.36590632532562706  1.0000
  N   N50       1.0  0.9390712227166808  0.6444739205812495  0.13409367481074735  1.0000
  N   N51       1.0  0.9390712229267141  0.8555260795268779  0.6340936749452176  1.0000
  N   N52       1.0  0.060928777091685295  0.35552607897345706  0.8659063254596728  1.0000
  N   N53       1.0  0.42512817444762835  0.9611577134941006  0.4620980057056022  1.0000
  N   N54       1.0  0.574871825482781  0.46115771449281484  0.03790199395746943  1.0000
  N   N55       1.0  0.5748718256928143  0.038842286060605954  0.5379019940919397  1.0000
  N   N56       1.0  0.4251281742459329  0.5388422850618917  0.962098005839648  1.0000
  Cl  Cl1       1.0  0.5811709616506948  0.7661565863816755  0.27087899323293674  1.0000
  Cl  Cl2       1.0  0.4188290382797146  0.2661565858282546  0.2291210064301349  1.0000
  Cl  Cl3       1.0  0.4188290384897479  0.2338434131730312  0.7291210065646052  1.0000
  Cl  Cl4       1.0  0.581170961860728  0.733843413726452  0.770878993367407  1.0000
  Cl  Cl5       1.0  0.5831164376105651  0.3101192489212869  0.26941312529807976  1.0000
  Cl  Cl6       1.0  0.4168835623198442  0.8101192494747077  0.23058687436499184  1.0000
  Cl  Cl7       1.0  0.41688356252987746  0.6898807506334197  0.7305868744994621  1.0000
  Cl  Cl8       1.0  0.5831164374088698  0.18988075007999888  0.7694131254321257  1.0000
