data_image0
_chemical_formula_structural       H20C28N4O8
_chemical_formula_sum              "H20 C28 N4 O8"
_cell_length_a       3.7634512538349396
_cell_length_b       10.521615130967438
_cell_length_c       14.63088941389838
_cell_angle_alpha    90.0
_cell_angle_beta     93.8617194975946
_cell_angle_gamma    90.0

_space_group_name_H-M_alt    "P 1"
_space_group_IT_number       1

loop_
  _space_group_symop_operation_xyz
  'x, y, z'

loop_
  _atom_site_type_symbol
  _atom_site_label
  _atom_site_symmetry_multiplicity
  _atom_site_fract_x
  _atom_site_fract_y
  _atom_site_fract_z
  _atom_site_occupancy
  H   H1        1.0  0.6428454632364425  0.5704997659848899  0.782267587593571  1.0000
  H   H2        1.0  0.8571545381433691  0.07049976650607594  0.7177324128131656  1.0000
  H   H3        1.0  0.35715453679581655  0.42950023392316244  0.2177324126585893  1.0000
  H   H4        1.0  0.14284546188889  0.9295002334019764  0.2822675874389947  1.0000
  H   H5        1.0  0.46421466717384874  0.7087897587178035  0.6463247492380564  1.0000
  H   H6        1.0  0.03578533230484897  0.20878975828856505  0.8536752504035491  1.0000
  H   H7        1.0  0.5357853329007317  0.2912102421406733  0.353675250331438  1.0000
  H   H8        1.0  0.9642146677697315  0.7912102416194874  0.1463247491659451  1.0000
  H   H9        1.0  0.8613374928955342  0.7533296876323968  0.3506783587352909  1.0000
  H   H10       1.0  0.6386625077326076  0.25332968720315846  0.14932164144475818  1.0000
  H   H11       1.0  0.13866250713672484  0.2466703122756555  0.6493216415168694  1.0000
  H   H12       1.0  0.3613374923419728  0.7466703127048939  0.8506783581247362  1.0000
  H   H13       1.0  0.48386944855385955  0.3447291176166121  0.7824511231113997  1.0000
  H   H14       1.0  0.01613055354536278  0.8447291170954261  0.7175488772698639  1.0000
  H   H15       1.0  0.5161305514783996  0.6552708832418646  0.2175488771407605  1.0000
  H   H16       1.0  0.9838694464868962  0.15527088281262622  0.2824511229822963  1.0000
  H   H17       1.0  0.20864951206860963  0.7736621639050135  0.4855271253835573  1.0000
  H   H18       1.0  0.2913504866584183  0.27366216442619956  0.014472874031360704  1.0000
  H   H19       1.0  0.7913504880059709  0.22633783600303886  0.514472874185937  1.0000
  H   H20       1.0  0.7086495134161621  0.7263378354818528  0.9855271255381337  1.0000
  C   C1        1.0  0.4885793177088087  0.5325719084237944  0.7227386575306872  1.0000
  C   C2        1.0  0.011420681727567616  0.03257190799455603  0.7772613427935843  1.0000
  C   C3        1.0  0.5114206823234504  0.46742809148425796  0.27726134272147296  1.0000
  C   C4        1.0  0.9885793183046915  0.9674280919134963  0.2227386574585761  1.0000
  C   C5        1.0  0.3910524344719619  0.6086368480778276  0.6489608966532996  1.0000
  C   C6        1.0  0.10894756496441436  0.10863684859901358  0.8510391036709719  1.0000
  C   C7        1.0  0.608947565560297  0.39136315183022485  0.3510391035988607  1.0000
  C   C8        1.0  0.8910524350678447  0.8913631513090386  0.14896089658118838  1.0000
  C   C9        1.0  0.19186137958229046  0.5559861995695444  0.5720252872616582  1.0000
  C   C10       1.0  0.30813862255925323  0.055986199140306024  0.9279747124369395  1.0000
  C   C11       1.0  0.80813862049229  0.4440138003385079  0.42797471230783596  1.0000
  C   C12       1.0  0.6918613775153273  0.9440138007677464  0.07202528713255484  1.0000
  C   C13       1.0  0.9032826097706675  0.5773436392024213  0.427488058921247  1.0000
  C   C14       1.0  0.5967173908574744  0.07734363972360724  0.072511941258802  1.0000
  C   C15       1.0  0.09671739026159165  0.4226563607056312  0.5725119413309132  1.0000
  C   C16       1.0  0.4032826091747847  0.9226563601844452  0.9274880589933583  1.0000
  C   C17       1.0  0.7931398902243479  0.6528921704978167  0.35020350096381575  1.0000
  C   C18       1.0  0.7068601104037938  0.15289217006857828  0.1497964992162333  1.0000
  C   C19       1.0  0.20686010985023248  0.34710782941023566  0.6497964986056785  1.0000
  C   C20       1.0  0.2931398896284652  0.847107829839474  0.850203501035927  1.0000
  C   C21       1.0  0.3974831928229003  0.40131654574327236  0.722924807557133  1.0000
  C   C22       1.0  0.1025168066557974  0.9013165452220863  0.7770751920844725  1.0000
  C   C23       1.0  0.6025168072516801  0.59868345416478  0.2770751920123613  1.0000
  C   C24       1.0  0.897483193418783  0.09868345468596605  0.2229248074850218  1.0000
  C   C25       1.0  0.4646091370893699  0.9329908742915014  0.5190787592004652  1.0000
  C   C26       1.0  0.035390862347006405  0.4329908748126875  0.9809212411238064  1.0000
  C   C27       1.0  0.5353908629428892  0.06700912561655094  0.48092124105169504  1.0000
  C   C28       1.0  0.9646091376852526  0.5670091260457893  0.019078759128353977  1.0000
  N   N1        1.0  0.09358066827442836  0.6294984170734441  0.49926428504458814  1.0000
  N   N2        1.0  0.4064193304102782  0.12949841664420567  0.0007357150529958433  1.0000
  N   N3        1.0  0.9064193317578306  0.37050158283460827  0.5007357152075721  1.0000
  N   N4        1.0  0.5935806670014563  0.8705015832638467  0.9992642844595062  1.0000
  O   O1        1.0  0.2589858476249572  0.865286317421391  0.46072759418390125  1.0000
  O   O2        1.0  0.2410141510597493  0.3652863169921525  0.0392724059136828  1.0000
  O   O3        1.0  0.7410141524496233  0.13471368248666143  0.5392724053855931  1.0000
  O   O4        1.0  0.7589858463096638  0.6347136829158998  0.9607275942814851  1.0000
  O   O5        1.0  0.5903484399632762  0.8980330797493454  0.5943814832556129  1.0000
  O   O6        1.0  0.9096515587960109  0.39803307932010695  0.9056185164114655  1.0000
  O   O7        1.0  0.40965156006898296  0.10196692015870698  0.4056185169965474  1.0000
  O   O8        1.0  0.09034844127856961  0.6019669205879453  0.09438148315802886  1.0000
