data_image0
_chemical_formula_structural       H80C104N8O24Cl16
_chemical_formula_sum              "H80 C104 N8 O24 Cl16"
_cell_length_a       16.204784046252346
_cell_length_b       6.557654478637111
_cell_length_c       24.094116318917294
_cell_angle_alpha    90.0
_cell_angle_beta     99.82086915382251
_cell_angle_gamma    90.0

_space_group_name_H-M_alt    "P 1"
_space_group_IT_number       1

loop_
  _space_group_symop_operation_xyz
  'x, y, z'

loop_
  _atom_site_type_symbol
  _atom_site_label
  _atom_site_symmetry_multiplicity
  _atom_site_fract_x
  _atom_site_fract_y
  _atom_site_fract_z
  _atom_site_occupancy
  H   H1        1.0  0.7391327192192012  0.4314926318881132  0.6421019701887145  1.0000
  H   H2        1.0  0.7608672803156388  0.9314926319920291  0.8578980296437803  1.0000
  H   H3        1.0  0.2608672806763059  0.5685073683197185  0.35789802969927553  1.0000
  H   H4        1.0  0.23913271957986834  0.06850736821580267  0.14210197024420987  1.0000
  H   H5        1.0  0.8462375548353379  0.4209361257126938  0.5801645929720521  1.0000
  H   H6        1.0  0.6537624453163436  0.9209361258166096  0.9198354068594234  1.0000
  H   H7        1.0  0.15376244567701075  0.5790638744951381  0.41983540691491883  1.0000
  H   H8        1.0  0.3462375545791635  0.07906387439122217  0.08016459302856664  1.0000
  H   H9        1.0  0.6417272361384527  0.3662965238295418  0.43841811858670665  1.0000
  H   H10       1.0  0.8582727641997422  0.8662965239334577  0.061581881142473566  1.0000
  H   H11       1.0  0.3582727643738958  0.6337034763782899  0.5615818813002643  1.0000
  H   H12       1.0  0.14172723569576487  0.1337034762743741  0.9384181187455164  1.0000
  H   H13       1.0  0.5452700605303729  0.3780134708340398  0.5074145950572468  1.0000
  H   H14       1.0  0.954729939004467  0.8780134709379558  0.992585404775248  1.0000
  H   H15       1.0  0.4547299393651343  0.621986529373792  0.49258540483074337  1.0000
  H   H16       1.0  0.04527006089104002  0.1219865292698761  0.007414595112742106  1.0000
  H   H17       1.0  0.02129077781137705  0.2995307646047596  0.45906538070288294  1.0000
  H   H18       1.0  0.47870922182795583  0.7995307647086756  0.04093461924162176  1.0000
  H   H19       1.0  0.9787092221924464  0.7004692356030722  0.5409346196063176  1.0000
  H   H20       1.0  0.5212907780675513  0.2004692354991563  0.9590653806463684  1.0000
  H   H21       1.0  0.9207669574580025  0.28767983219391513  0.525813839507193  1.0000
  H   H22       1.0  0.5792330428019951  0.787679832297831  0.9741861607454928  1.0000
  H   H23       1.0  0.07923304243750455  0.7123201680139167  0.47418616038079703  1.0000
  H   H24       1.0  0.4207669578186697  0.21232016791000077  0.025813839562688408  1.0000
  H   H25       1.0  0.7291352264025243  0.48823323193225143  0.3890639854630476  1.0000
  H   H26       1.0  0.7708647734271455  0.9882332320361674  0.11093601468836217  1.0000
  H   H27       1.0  0.2708647736012991  0.5117667682755804  0.6109360148461529  1.0000
  H   H28       1.0  0.22913522646836165  0.011766768171664452  0.8890639851996279  1.0000
  H   H29       1.0  0.8393991662620716  0.483731430244442  0.3277916158098602  1.0000
  H   H30       1.0  0.6606008335675982  0.9837314303483579  0.17220838434154956  1.0000
  H   H31       1.0  0.1606008336334356  0.5162685699633898  0.6722083840781299  1.0000
  H   H32       1.0  0.3393991664362252  0.01626856985947394  0.8277916159676509  1.0000
  H   H33       1.0  0.3557221603547811  0.60383379040473  0.9250752073676543  1.0000
  H   H34       1.0  0.14427783971487967  0.10383379030081406  0.5749247926781266  1.0000
  H   H35       1.0  0.6442778396490424  0.39616620980310185  0.07492479294154622  1.0000
  H   H36       1.0  0.8557221601806275  0.8961662099070177  0.4250752072098636  1.0000
  H   H37       1.0  0.18301887529313596  0.5034317179648236  0.7708121562306999  1.0000
  H   H38       1.0  0.3169811247765248  0.003431717860907647  0.7291878438150808  1.0000
  H   H39       1.0  0.8169811246023712  0.49656828224300825  0.22918784365729022  1.0000
  H   H40       1.0  0.6830188751189823  0.9965682823469241  0.2708121560729092  1.0000
  H   H41       1.0  0.3023018587921019  0.4807858633404634  0.7185947158326305  1.0000
  H   H42       1.0  0.19769814127755883  0.9807858634443793  0.7814052842131504  1.0000
  H   H43       1.0  0.6976981411034052  0.5192141368673684  0.2814052840553597  1.0000
  H   H44       1.0  0.8023018592347897  0.019214136763452464  0.21859471567382052  1.0000
  H   H45       1.0  0.42038086041115647  0.6312455868916592  0.6869743182748471  1.0000
  H   H46       1.0  0.07961913965850426  0.13124558678774323  0.8130256817709336  1.0000
  H   H47       1.0  0.579619139592667  0.36875441331617265  0.3130256820343533  1.0000
  H   H48       1.0  0.9203808602370028  0.8687544134200885  0.18697431811705645  1.0000
  H   H49       1.0  0.4144992485607743  0.3588174182804807  0.6952945696185687  1.0000
  H   H50       1.0  0.08550075150888643  0.8588174183843966  0.804705430427212  1.0000
  H   H51       1.0  0.5855007513347328  0.641182581927351  0.3047054302694213  1.0000
  H   H52       1.0  0.9144992483866207  0.14118258182343518  0.19529456946077808  1.0000
  H   H53       1.0  0.5734761405431738  0.4314652333722894  0.6126630518852059  1.0000
  H   H54       1.0  0.9265238589916661  0.9314652334762054  0.8873369479472889  1.0000
  H   H55       1.0  0.4265238593523333  0.5685347668355424  0.38733694800278423  1.0000
  H   H56       1.0  0.07347614090384094  0.06853476673162648  0.1126630519407012  1.0000
  H   H57       1.0  0.14192713494580145  0.5954479810914847  0.01939338159460485  1.0000
  H   H58       1.0  0.3580728646935314  0.09544798098756874  0.4806066183498998  1.0000
  H   H59       1.0  0.8580728649497057  0.4045520191163472  0.9806066182933852  1.0000
  H   H60       1.0  0.6419271352019756  0.9045520192202631  0.5193933815380902  1.0000
  H   H61       1.0  0.34745278456728096  0.5901390295275658  0.15970212989540533  1.0000
  H   H62       1.0  0.15254721579720962  0.09013902942364989  0.34029787046929044  1.0000
  H   H63       1.0  0.6525472160533838  0.409860970680266  0.8402978704127759  1.0000
  H   H64       1.0  0.847452784206614  0.9098609692592464  0.65970212983991  1.0000
  H   H65       1.0  0.24836277056034864  0.5623513349191315  0.225517192167375  1.0000
  H   H66       1.0  0.25163722969582564  0.06235133481521551  0.2744828077761104  1.0000
  H   H67       1.0  0.7516372293351585  0.4376486652887004  0.7744828077206151  1.0000
  H   H68       1.0  0.7483627709248393  0.9376486653926163  0.7255171925320707  1.0000
  H   H69       1.0  0.13334504990858775  0.668705325095349  0.2701647516266048  1.0000
  H   H70       1.0  0.3666549503475865  0.168705324991433  0.2298352483168806  1.0000
  H   H71       1.0  0.8666549500952356  0.33129467511248284  0.7298352486825955  1.0000
  H   H72       1.0  0.6333450495479207  0.8312946752163988  0.7701647515711094  1.0000
  H   H73       1.0  0.14856858909356047  0.39895485169626244  0.2618629018897008  1.0000
  H   H74       1.0  0.35143141054577237  0.8989548518001783  0.23813709805480382  1.0000
  H   H75       1.0  0.8514314108019466  0.6010451485115693  0.7381370979982894  1.0000
  H   H76       1.0  0.6485685893497347  0.10104514840765343  0.7618629018331862  1.0000
  H   H77       1.0  0.001890679972341072  0.41551872836189835  0.35533895066551796  1.0000
  H   H78       1.0  0.49810931966699173  0.9155187284658143  0.14466104927898665  1.0000
  H   H79       1.0  0.9981093199231661  0.5844812718459333  0.6446610492224721  1.0000
  H   H80       1.0  0.5018906802285154  0.08448127174201751  0.8553389506090033  1.0000
  C   C1        1.0  0.721167115187217  0.416157970641841  0.5966053657677265  1.0000
  C   C2        1.0  0.7788328849644643  0.9161579707457569  0.903394634063749  1.0000
  C   C3        1.0  0.27883288532513156  0.5838420295659907  0.4033946341192444  1.0000
  C   C4        1.0  0.22116711493104274  0.08384202946207489  0.09660536582424106  1.0000
  C   C5        1.0  0.7804786481228386  0.40828212262815705  0.5612510132961753  1.0000
  C   C6        1.0  0.7195213521371592  0.9082821227320729  0.9387489869565105  1.0000
  C   C7        1.0  0.2195213517726686  0.5917178775796748  0.43874898659181466  1.0000
  C   C8        1.0  0.28047864786666427  0.09171787747575888  0.06125101335268995  1.0000
  C   C9        1.0  0.7540437389180186  0.3925246120217922  0.5027447127598753  1.0000
  C   C10       1.0  0.7459562613419791  0.8925246121257081  0.9972552874928104  1.0000
  C   C11       1.0  0.24595626097748846  0.6074753881860395  0.4972552871281147  1.0000
  C   C12       1.0  0.2540437386618443  0.10747538808212369  0.0027447128163899017  1.0000
  C   C13       1.0  0.6674205257826995  0.3828382096340284  0.4829484677650978  1.0000
  C   C14       1.0  0.8325794746638117  0.8828382097379444  0.01705153238529274  1.0000
  C   C15       1.0  0.332579474729649  0.6171617905738034  0.517051532121873  1.0000
  C   C16       1.0  0.16742052534001178  0.11716179046988741  0.9829484679239077  1.0000
  C   C17       1.0  0.6126445019656398  0.3902026461345068  0.5213432567593078  1.0000
  C   C18       1.0  0.887355498294358  0.8902026462384227  0.9786567434933781  1.0000
  C   C19       1.0  0.38735549803818364  0.609797354073325  0.47865674354989257  1.0000
  C   C20       1.0  0.1126445017094655  0.10979735396940914  0.021343256815822446  1.0000
  C   C21       1.0  0.9557476325197312  0.3403798442372188  0.4455311895123953  1.0000
  C   C22       1.0  0.5442523672016223  0.8403798443411347  0.05446881021780415  1.0000
  C   C23       1.0  0.044252367375775974  0.659620155970613  0.5544688103755948  1.0000
  C   C24       1.0  0.4557476326938848  0.15962015586669712  0.945531189670186  1.0000
  C   C25       1.0  0.8990723478386515  0.3352758013040272  0.4825886999399409  1.0000
  C   C26       1.0  0.60092765260786  0.8352758014079431  0.01741130021044964  1.0000
  C   C27       1.0  0.10092765216517206  0.6647241989038045  0.5174113003692595  1.0000
  C   C28       1.0  0.3990723479044887  0.16472419879988873  0.9825886996765213  1.0000
  C   C29       1.0  0.8150606895498546  0.38915532044475387  0.46364500560559585  1.0000
  C   C30       1.0  0.6849393102798152  0.8891553205486697  0.03635499454581395  1.0000
  C   C31       1.0  0.1849393103456526  0.610844679763078  0.5363549942823943  1.0000
  C   C32       1.0  0.31506068972400814  0.11084467965916206  0.9636450057633864  1.0000
  C   C33       1.0  0.792728819549933  0.44153347350526484  0.40655609096418466  1.0000
  C   C34       1.0  0.7072711801714203  0.9415334736091806  0.09344390876601476  1.0000
  C   C35       1.0  0.207271180345574  0.558466526702567  0.5934439089238054  1.0000
  C   C36       1.0  0.2927288197240867  0.05846652659865108  0.9065560911219753  1.0000
  C   C37       1.0  0.8536176649024355  0.44207995395977406  0.3721851403609551  1.0000
  C   C38       1.0  0.6463823355440758  0.9420799540636899  0.12781485978943546  1.0000
  C   C39       1.0  0.14638233499307157  0.5579200462480578  0.627814859527035  1.0000
  C   C40       1.0  0.3536176650765891  0.05792004614414186  0.8721851405187456  1.0000
  C   C41       1.0  0.39712582100694366  0.5322985880655097  0.7917642829903184  1.0000
  C   C42       1.0  0.10287417906271708  0.03229858796159376  0.7082357170554623  1.0000
  C   C43       1.0  0.6028741788885634  0.46770141214232214  0.20823571689767167  1.0000
  C   C44       1.0  0.89712582083279  0.9677014122462381  0.29176428283252775  1.0000
  C   C45       1.0  0.410378873177792  0.5678733413191279  0.8503011054443961  1.0000
  C   C46       1.0  0.08962112678355244  0.06787334121521203  0.6496988941801743  1.0000
  C   C47       1.0  0.5896211267177152  0.4321266588887039  0.14969889444359405  1.0000
  C   C48       1.0  0.9103788731119546  0.9321266589926198  0.35030110570781575  1.0000
  C   C49       1.0  0.3440082889961246  0.5779906035530766  0.879868951857578  1.0000
  C   C50       1.0  0.15599171107353618  0.07799060344916077  0.6201310481882029  1.0000
  C   C51       1.0  0.6559917108993825  0.4220093966547551  0.12013104803041215  1.0000
  C   C52       1.0  0.844008288821971  0.9220093967586711  0.37986895169978724  1.0000
  C   C53       1.0  0.26247646153958204  0.5539684077339491  0.8506985867368134  1.0000
  C   C54       1.0  0.23752353791323724  0.05396840763003313  0.6493014133099865  1.0000
  C   C55       1.0  0.7375235384642413  0.44603159247388274  0.14930141357238697  1.0000
  C   C56       1.0  0.7624764619822698  0.9460315925777987  0.35069858657800357  1.0000
  C   C57       1.0  0.2471758746506621  0.5201495170433112  0.7928021738586932  1.0000
  C   C58       1.0  0.2528241254189987  0.020149516939395314  0.7071978261870875  1.0000
  C   C59       1.0  0.7528241253531615  0.47985048316452056  0.20719782645050716  1.0000
  C   C60       1.0  0.7471758744765085  0.9798504832684365  0.2928021737009026  1.0000
  C   C61       1.0  0.3145141462640788  0.509411127238023  0.7636929501649637  1.0000
  C   C62       1.0  0.18548585369726564  0.009411127134106998  0.7363070494596067  1.0000
  C   C63       1.0  0.6854858536314283  0.4905888729698089  0.23630704972302635  1.0000
  C   C64       1.0  0.8145141461982415  0.9905888730737248  0.2636929504283834  1.0000
  C   C65       1.0  0.45224064052017016  0.4961566426836515  0.7077753323217375  1.0000
  C   C66       1.0  0.047759359549490635  0.9961566427875673  0.7922246677240432  1.0000
  C   C67       1.0  0.547759359375337  0.5038433575241803  0.2922246675662525  1.0000
  C   C68       1.0  0.9522406404543328  0.0038433574202643974  0.20777533258515726  1.0000
  C   C69       1.0  0.5345590922512642  0.46833752525465355  0.6866474441249882  1.0000
  C   C70       1.0  0.9654409080087337  0.9683375253585694  0.8133525561276977  1.0000
  C   C71       1.0  0.46544090775255936  0.5316624749531782  0.3133525561842122  1.0000
  C   C72       1.0  0.03455909199508983  0.03166247484926233  0.1866474441815028  1.0000
  C   C73       1.0  0.13705282820232342  0.5625921664550327  0.16071457395548688  1.0000
  C   C74       1.0  0.3629471714370094  0.06259216635111678  0.33928542598901773  1.0000
  C   C75       1.0  0.8629471716931836  0.4374078337527991  0.8392854259325032  1.0000
  C   C76       1.0  0.6370528284584976  0.9374078338567151  0.6607145738989724  1.0000
  C   C77       1.0  0.10895129090429437  0.5728322439429145  0.10201225613497579  1.0000
  C   C78       1.0  0.3910487087350385  0.07283224383899871  0.3979877438095289  1.0000
  C   C79       1.0  0.8910487089912126  0.4271677562649172  0.8979877437530143  1.0000
  C   C80       1.0  0.6089512911604686  0.9271677563688331  0.6020122560784612  1.0000
  C   C81       1.0  0.16500114494810206  0.5885899634654406  0.06448478213547387  1.0000
  C   C82       1.0  0.3349988546912308  0.08858996488646018  0.43551521780903074  1.0000
  C   C83       1.0  0.8349988549474051  0.41141003521745567  0.9355152177525163  1.0000
  C   C84       1.0  0.6650011452042763  0.9114100353213717  0.5644847820789594  1.0000
  C   C85       1.0  0.25063641029671196  0.5933223689468666  0.08558196755537284  1.0000
  C   C86       1.0  0.2493635893426209  0.0933223688429507  0.41441803238913183  1.0000
  C   C87       1.0  0.7493635895987952  0.40667763126096523  0.9144180323326172  1.0000
  C   C88       1.0  0.7506364105528862  0.9066776313648811  0.5855819674988583  1.0000
  C   C89       1.0  0.28058873786133326  0.5845546822400871  0.14330969318245287  1.0000
  C   C90       1.0  0.21941126250315732  0.08455468213617115  0.3566903071822429  1.0000
  C   C91       1.0  0.7194112621424901  0.41544531796774475  0.8566903071267475  1.0000
  C   C92       1.0  0.7805887375006662  0.9154453180716606  0.6433096931269575  1.0000
  C   C93       1.0  0.22360152760456026  0.569530722023678  0.18061800656106394  1.0000
  C   C94       1.0  0.2763984720347726  0.06953072191976219  0.3193819933834407  1.0000
  C   C95       1.0  0.7763984722909468  0.4304692781841537  0.8193819933269261  1.0000
  C   C96       1.0  0.723601527969051  0.9304692782880697  0.6806180069257597  1.0000
  C   C97       1.0  0.10396696769565883  0.5258307602563179  0.2524806512432759  1.0000
  C   C98       1.0  0.3960330325605155  0.025830760152402  0.24751934870020953  1.0000
  C   C99       1.0  0.8960330321998482  0.4741692399515139  0.7475193486447141  1.0000
  C   C100      1.0  0.6039669673349917  0.9741692400554297  0.7524806511877805  1.0000
  C   C101      1.0  0.028909010340248193  0.4817475974514242  0.28076015397179394  1.0000
  C   C102      1.0  0.4710909899159261  0.9817475975553401  0.21923984597169152  1.0000
  C   C103      1.0  0.971090989555259  0.5182524027564076  0.7192398459161962  1.0000
  C   C104      1.0  0.5289090100878974  0.01825240265249169  0.7807601543375089  1.0000
  N   N1        1.0  0.6387707369270109  0.4077747765929491  0.5770094519536076  1.0000
  N   N2        1.0  0.861229262607829  0.9077747751719295  0.922990547878887  1.0000
  N   N3        1.0  0.3612292629684961  0.5922252236148827  0.4229905479343824  1.0000
  N   N4        1.0  0.13877073728767814  0.09222522351096679  0.07700945200910302  1.0000
  N   N5        1.0  0.9338255689589287  0.394260119745945  0.39130930296923744  1.0000
  N   N6        1.0  0.5661744313792663  0.8942601198498609  0.10869069675994276  1.0000
  N   N7        1.0  0.06617443093657849  0.6057398789369512  0.6086906969187527  1.0000
  N   N8        1.0  0.4338255691330823  0.10573988035797087  0.8913093031270282  1.0000
  O   O1        1.0  0.4663189901014472  0.5215390779037812  0.7672883874142017  1.0000
  O   O2        1.0  0.0336810099682136  0.02153907779986532  0.7327116126315791  1.0000
  O   O3        1.0  0.5336810099023763  0.4784609223040506  0.2327116128949988  1.0000
  O   O4        1.0  0.9663189899272936  0.9784609224079664  0.26728838725641096  1.0000
  O   O5        1.0  0.6039997980644388  0.4584482988229679  0.7166171434212145  1.0000
  O   O6        1.0  0.8960002014704013  0.9584482989268838  0.7833828564112802  1.0000
  O   O7        1.0  0.3960002018310684  0.541551701384864  0.2833828564667755  1.0000
  O   O8        1.0  0.10399979842510591  0.041551701280948  0.21661714347670993  1.0000
  O   O9        1.0  0.518277812111989  0.4540545220398416  0.631231442734009  1.0000
  O   O10       1.0  0.9817221880396925  0.9540545221437574  0.8687685570974666  1.0000
  O   O11       1.0  0.4817221877835181  0.5459454781679902  0.36876855715398105  1.0000
  O   O12       1.0  0.01827781247265615  0.0459454780640743  0.13123144278950435  1.0000
  O   O13       1.0  0.07687567994267942  0.5456581604988239  0.1933156786071312  1.0000
  O   O14       1.0  0.42312432031349484  0.045658160394908  0.30668432133635426  1.0000
  O   O15       1.0  0.9231243199528277  0.45434183970900793  0.806684321280859  1.0000
  O   O16       1.0  0.5768756795820124  0.9543418398129239  0.6933156785516359  1.0000
  O   O17       1.0  0.9555877996627135  0.4883716549008536  0.2570106820039695  1.0000
  O   O18       1.0  0.5444122001669564  0.9883716550047695  0.2429893181474403  1.0000
  O   O19       1.0  0.044412200341110056  0.5116283453069782  0.7429893183052311  1.0000
  O   O20       1.0  0.4555877997285507  0.011628345203062322  0.7570106817405498  1.0000
  O   O21       1.0  0.05451244306146309  0.43733712859419244  0.33463699900968075  1.0000
  O   O22       1.0  0.44548755657786976  0.9373371286981084  0.1653630009348239  1.0000
  O   O23       1.0  0.9454875568340441  0.5626628716136394  0.6653630008783094  1.0000
  O   O24       1.0  0.5545124433176373  0.06266287150972348  0.8346369989531662  1.0000
  Cl  Cl1       1.0  0.5116260040032988  0.5929283789907905  0.885414060613768  1.0000
  Cl  Cl2       1.0  0.9883739962566989  0.09292837888687468  0.6145859396389177  1.0000
  Cl  Cl3       1.0  0.4883739960005245  0.40707162121704127  0.11458593969543233  1.0000
  Cl  Cl4       1.0  0.011626004363966116  0.9070716213209571  0.3854140606692635  1.0000
  Cl  Cl5       1.0  0.1790049171553774  0.5689607865365042  0.8870974324857321  1.0000
  Cl  Cl6       1.0  0.32099508291428336  0.0689607864325883  0.6129025675600487  1.0000
  Cl  Cl7       1.0  0.8209950827401298  0.4310392136713276  0.112902567402258  1.0000
  Cl  Cl8       1.0  0.6790049169812238  0.9310392137752436  0.3870974323279414  1.0000
  Cl  Cl9       1.0  0.003120671314536082  0.5608702581055176  0.07649837831394986  1.0000
  Cl  Cl10      1.0  0.4968793283247967  0.06087025800160173  0.4235016216305547  1.0000
  Cl  Cl11      1.0  0.9968793285809711  0.4391297421023142  0.9235016215740403  1.0000
  Cl  Cl12      1.0  0.5031206715707104  0.93912974220623  0.5764983782574353  1.0000
  Cl  Cl13      1.0  0.31966923294558736  0.6084271034708768  0.03780992583378204  1.0000
  Cl  Cl14      1.0  0.18033076669374548  0.10842710489189636  0.4621900741107226  1.0000
  Cl  Cl15      1.0  0.6803307670582361  0.3915728952120195  0.9621900744754185  1.0000
  Cl  Cl16      1.0  0.8196692332017617  0.8915728953159354  0.5378099257772675  1.0000
