data_image0
_chemical_formula_structural       H22C62N4O8S4Cl20
_chemical_formula_sum              "H22 C62 N4 O8 S4 Cl20"
_cell_length_a       9.690569377406248
_cell_length_b       13.660517753709248
_cell_length_c       14.047185409661612
_cell_angle_alpha    63.656097574269154
_cell_angle_beta     88.83188786417419
_cell_angle_gamma    78.27084451261119

_space_group_name_H-M_alt    "P 1"
_space_group_IT_number       1

loop_
  _space_group_symop_operation_xyz
  'x, y, z'

loop_
  _atom_site_type_symbol
  _atom_site_label
  _atom_site_symmetry_multiplicity
  _atom_site_fract_x
  _atom_site_fract_y
  _atom_site_fract_z
  _atom_site_occupancy
  H   H1        1.0  0.7802522309286087  0.7290623851103065  0.4675266601318134  1.0000
  H   H2        1.0  0.21974776946891086  0.27093761470001765  0.5324733399144889  1.0000
  H   H3        1.0  0.01313962097307004  0.606256339547384  0.42540315219401975  1.0000
  H   H4        1.0  0.9868603783928095  0.39374366026324675  0.5745968478426013  1.0000
  H   H5        1.0  0.9548789999040723  0.05839428375743197  0.196452480492628  1.0000
  H   H6        1.0  0.04512100027366687  0.9416057167987261  0.8035475195574772  1.0000
  H   H7        1.0  0.7343760983362125  0.08645823872172848  0.28373573331173807  1.0000
  H   H8        1.0  0.26562390095700894  0.9135417614682698  0.7162642659280376  1.0000
  H   H9        1.0  0.6367089787576916  0.7499929756938196  0.16562028239365972  1.0000
  H   H10       1.0  0.3632910203884074  0.25000702486264514  0.8343797176467643  1.0000
  H   H11       1.0  0.41479855264616006  0.8877617669357356  0.20874894145505435  1.0000
  H   H12       1.0  0.5852014477513596  0.11223823287458842  0.791251058591248  1.0000
  H   H13       1.0  0.45819138642836654  0.23130323415790507  0.07971175792760882  1.0000
  H   H14       1.0  0.5418086137493726  0.768696766398253  0.9202882421224964  1.0000
  H   H15       1.0  0.6874194513630324  0.18486672956888342  0.008676544415152348  1.0000
  H   H16       1.0  0.3125805490344874  0.8151332702414404  0.9913234556311499  1.0000
  H   H17       1.0  0.12198340252616348  0.13845631672158354  0.36651286629904  1.0000
  H   H18       1.0  0.8780165978713561  0.8615436830887404  0.6334871337472623  1.0000
  H   H19       1.0  0.8824740175780998  0.20177927871529483  0.4110635526700795  1.0000
  H   H20       1.0  0.11752598171512141  0.7982207214747034  0.5889364465696962  1.0000
  H   H21       1.0  0.24013749266632292  0.9372323779797445  0.4537524086651253  1.0000
  H   H22       1.0  0.7598625077311968  0.0627676218305796  0.546247591381177  1.0000
  C   C1        1.0  0.35511858190083445  0.6231214175011359  0.2517997592881072  1.0000
  C   C2        1.0  0.6448814174650451  0.376878582309495  0.7482002407485138  1.0000
  C   C3        1.0  0.24940825537304465  0.6006986344677524  0.32799424605800936  1.0000
  C   C4        1.0  0.7505917450244749  0.39930136534257166  0.672005753988293  1.0000
  C   C5        1.0  0.24826049917515916  0.4953912133359434  0.41929183717006474  1.0000
  C   C6        1.0  0.7517395012223606  0.5046087864743807  0.5807081628762374  1.0000
  C   C7        1.0  0.3858104912454494  0.416940141881524  0.4705359240808164  1.0000
  C   C8        1.0  0.6141895091520702  0.5830598579288001  0.5294640759654858  1.0000
  C   C9        1.0  0.4957023195867056  0.3844398529007398  0.4214729227983086  1.0000
  C   C10       1.0  0.5042976797791741  0.6155601469098911  0.5785270772383125  1.0000
  C   C11       1.0  0.4984608415431698  0.4240158686376517  0.30695704892679093  1.0000
  C   C12       1.0  0.5015391586345693  0.5759841319185062  0.6930429511233143  1.0000
  C   C13       1.0  0.43914811877075327  0.5300989594751041  0.23246231821679145  1.0000
  C   C14       1.0  0.5608518803753458  0.4699010410813606  0.7675376818236326  1.0000
  C   C15       1.0  0.1418596369860694  0.6943114448820773  0.31706659507418017  1.0000
  C   C16       1.0  0.8581403623798104  0.30568855492855357  0.6829334049624408  1.0000
  C   C17       1.0  0.9401744764726205  0.7857730938038908  0.3585507515734652  1.0000
  C   C18       1.0  0.05982552289325895  0.21422690600674002  0.6414492484631559  1.0000
  C   C19       1.0  0.9913459935194147  0.8774436866337847  0.28376546006758036  1.0000
  C   C20       1.0  0.008654006658324352  0.12255631392237322  0.7162345399825248  1.0000
  C   C21       1.0  0.9182236102522161  0.9868270131196454  0.25599574374953876  1.0000
  C   C22       1.0  0.08177639014530365  0.013172986690678672  0.7440042562967635  1.0000
  C   C23       1.0  0.7943812712521163  0.0024163646758895755  0.303984459290779  1.0000
  C   C24       1.0  0.20561872914540338  0.9975836351344345  0.6960155407555232  1.0000
  C   C25       1.0  0.7450596493851832  0.9098556949068195  0.3786436615444404  1.0000
  C   C26       1.0  0.25494035079255595  0.0901443056493384  0.6213563385056647  1.0000
  C   C27       1.0  0.8166970639321409  0.8003596580838204  0.40808073076812695  1.0000
  C   C28       1.0  0.18330293521395816  0.19964034247264423  0.5919192692722971  1.0000
  C   C29       1.0  0.007855540916023113  0.7365130176442254  0.03830151644861501  1.0000
  C   C30       1.0  0.9921444594088382  0.26348698254546604  0.9616984828008418  1.0000
  C   C31       1.0  0.8860728565213823  0.7215394938823053  0.09973553567380938  1.0000
  C   C32       1.0  0.1139271438761373  0.27846050592801896  0.9002644643724927  1.0000
  C   C33       1.0  0.8438810375316225  0.6177176060381189  0.16690783971660472  1.0000
  C   C34       1.0  0.15611896183425703  0.38228239377251194  0.8330921603200163  1.0000
  C   C35       1.0  0.9515532198466793  0.5108398626975384  0.21997746543020855  1.0000
  C   C36       1.0  0.04844678055084031  0.4891601371127856  0.7800225346160936  1.0000
  C   C37       1.0  0.07437962246900519  0.4765247646432019  0.18261837770499248  1.0000
  C   C38       1.0  0.9256203777087338  0.523475235912956  0.8173816223451127  1.0000
  C   C39       1.0  0.11753932034966147  0.5341830260869552  0.07549696732528523  1.0000
  C   C40       1.0  0.8824606800478583  0.4658169737233689  0.924503032721017  1.0000
  C   C41       1.0  0.08516090589127306  0.6472867565133221  0.011713436809555687  1.0000
  C   C42       1.0  0.9148390934746067  0.35271324329730874  0.9882865632270653  1.0000
  C   C43       1.0  0.796336781699207  0.8226409890985656  0.0915014968663219  1.0000
  C   C44       1.0  0.20366321744689206  0.17735901145789923  0.908498503174102  1.0000
  C   C45       1.0  0.6014999040796283  0.9281037105084993  0.12477339212960407  1.0000
  C   C46       1.0  0.39850009631789146  0.07189628930182472  0.8752266079166982  1.0000
  C   C47       1.0  0.6791667375906533  0.010459721858667365  0.06897901059034496  1.0000
  C   C48       1.0  0.32083326258708594  0.9895402786974905  0.9310209894597603  1.0000
  C   C49       1.0  0.628491372894929  0.12070824403842605  0.05190063459166001  1.0000
  C   C50       1.0  0.37150862625117015  0.8792917565180386  0.948099365448764  1.0000
  C   C51       1.0  0.5009715378477527  0.1461823201713323  0.09186048079863592  1.0000
  C   C52       1.0  0.4990284625497668  0.8538176796389919  0.9081395192476662  1.0000
  C   C53       1.0  0.4255766934269243  0.062481401059667506  0.14824876569042178  1.0000
  C   C54       1.0  0.5744233069705954  0.9375185987506566  0.8517512343558805  1.0000
  C   C55       1.0  0.47341801117992444  0.9522906267763785  0.16565829614051356  1.0000
  C   C56       1.0  0.5265819892175952  0.04770937303394542  0.8343417039057888  1.0000
  C   C57       1.0  0.06850976905436763  0.07758430580939961  0.42500060349668484  1.0000
  C   C58       1.0  0.931490231343152  0.9224156940009246  0.5749993965496174  1.0000
  C   C59       1.0  0.9337765769962728  0.11333100487539727  0.45052880982299015  1.0000
  C   C60       1.0  0.06622342236960663  0.8866689949352334  0.5494711902136309  1.0000
  C   C61       1.0  0.13483540903149782  0.964347572517018  0.47409149972423115  1.0000
  C   C62       1.0  0.8651645911462413  0.03565242803914004  0.525908500325874  1.0000
  N   N1        1.0  0.0270394679562019  0.6855334752374677  0.37376933820078195  1.0000
  N   N2        1.0  0.9729605314096779  0.31446652457316315  0.6262306618358392  1.0000
  N   N3        1.0  0.6700186568352964  0.825457409153048  0.1332968019790157  1.0000
  N   N4        1.0  0.3299813425305833  0.17454259065758287  0.8667031980576053  1.0000
  O   O1        1.0  0.3628873352682533  0.7217827884665887  0.19020060347047993  1.0000
  O   O2        1.0  0.6371126638778458  0.27821721208987604  0.8097993965699442  1.0000
  O   O3        1.0  0.13999552415404887  0.47502692431664345  0.4684519350607545  1.0000
  O   O4        1.0  0.8600044752118305  0.5249730754939873  0.5315480649758666  1.0000
  O   O5        1.0  0.039287363166995624  0.8308581475624011  0.9938872223275836  1.0000
  O   O6        1.0  0.9607126361988839  0.16914185224822995  0.006112777709037337  1.0000
  O   O7        1.0  0.720270460193148  0.616207307087571  0.19574921748825477  1.0000
  O   O8        1.0  0.2797295402043717  0.3837926927227533  0.8042507825580474  1.0000
  S   S1        1.0  0.1473255867524704  0.8326996462502242  0.23626754555429652  1.0000
  S   S2        1.0  0.852674412613409  0.16730035356040668  0.7637324544823245  1.0000
  S   S3        1.0  0.8369131420736503  0.953559657344761  0.03212917412121364  1.0000
  S   S4        1.0  0.1630868583238693  0.046440342465563125  0.9678708259250887  1.0000
  Cl  Cl1       1.0  0.3949394972523983  0.36679186122624724  0.606188283690586  1.0000
  Cl  Cl2       1.0  0.6050605031451215  0.6332081385840768  0.3938117163557163  1.0000
  Cl  Cl3       1.0  0.6425250307547343  0.2883455863460396  0.4987032379695743  1.0000
  Cl  Cl4       1.0  0.35747496964278536  0.7116544134642846  0.501296762076728  1.0000
  Cl  Cl5       1.0  0.587114015729325  0.3279504254991303  0.2666689092964951  1.0000
  Cl  Cl6       1.0  0.4128859845955365  0.672049574690561  0.7333310899529617  1.0000
  Cl  Cl7       1.0  0.4598014587901913  0.5678350986535533  0.10032914694851185  1.0000
  Cl  Cl8       1.0  0.5401985416073284  0.43216490115677075  0.8996708530977904  1.0000
  Cl  Cl9       1.0  0.5910851954673106  0.9323647837718727  0.43730113913706486  1.0000
  Cl  Cl10      1.0  0.408914804930209  0.06763521603845137  0.5626988609092374  1.0000
  Cl  Cl11      1.0  0.9039872710390404  0.423233043233488  0.34129087001956165  1.0000
  Cl  Cl12      1.0  0.09601272832683921  0.5767669565771428  0.6587091300170594  1.0000
  Cl  Cl13      1.0  0.18396744501915666  0.35015110849157977  0.2643479225200289  1.0000
  Cl  Cl14      1.0  0.8160325551585824  0.6498488920645781  0.7356520775300762  1.0000
  Cl  Cl15      1.0  0.2166750032556099  0.4490426668186739  0.026796881111254233  1.0000
  Cl  Cl16      1.0  0.7833249958904892  0.5509573337377907  0.9732031189291698  1.0000
  Cl  Cl17      1.0  0.1417783960986416  0.6996222925712549  0.885449782506104  1.0000
  Cl  Cl18      1.0  0.8582216042988783  0.3003777072390691  0.11455021754019831  1.0000
  Cl  Cl19      1.0  0.268022457477076  0.09823077944741632  0.19763947152187983  1.0000
  Cl  Cl20      1.0  0.7319775418888037  0.9017692203632145  0.8023605285147414  1.0000
