data_image0
_chemical_formula_structural       H64C80N12O4
_chemical_formula_sum              "H64 C80 N12 O4"
_cell_length_a       7.02955390245991
_cell_length_b       11.637870654766392
_cell_length_c       19.375200613747655
_cell_angle_alpha    93.61942465867958
_cell_angle_beta     92.70865607971942
_cell_angle_gamma    90.51869018601187

_space_group_name_H-M_alt    "P 1"
_space_group_IT_number       1

loop_
  _space_group_symop_operation_xyz
  'x, y, z'

loop_
  _atom_site_type_symbol
  _atom_site_label
  _atom_site_symmetry_multiplicity
  _atom_site_fract_x
  _atom_site_fract_y
  _atom_site_fract_z
  _atom_site_occupancy
  H   H1        1.0  0.3444836462098961  0.3389984493334901  0.581778779414819  1.0000
  H   H2        1.0  0.6555163538105878  0.6610015503040533  0.4182212203478688  1.0000
  H   H3        1.0  0.4868965028819473  0.44947517385499786  0.5534191361562804  1.0000
  H   H4        1.0  0.5131034971627222  0.5505248266435789  0.4465808636396601  1.0000
  H   H5        1.0  0.4809711095782992  0.10530114848518209  0.519797506102625  1.0000
  H   H6        1.0  0.5190288904411967  0.8946988511520497  0.4802024941761575  1.0000
  H   H7        1.0  0.39597988152277874  0.9778199278467379  0.6134132403359198  1.0000
  H   H8        1.0  0.6040201185218907  0.02218007265183902  0.38658675946002075  1.0000
  H   H9        1.0  0.06498815616007367  0.9791762387188573  0.6540529006111271  1.0000
  H   H10       1.0  0.9350118438845959  0.02082376177971943  0.3459470991848135  1.0000
  H   H11       1.0  0.8208914184955499  0.10323232890728844  0.6000803039011446  1.0000
  H   H12       1.0  0.17910858154813167  0.8967676715909767  0.3999196964108906  1.0000
  H   H13       1.0  0.744028525511922  0.2647461177265058  0.5317512788235312  1.0000
  H   H14       1.0  0.2559714745085618  0.7352538819110376  0.46824872093915654  1.0000
  H   H15       1.0  0.7200967728143592  0.32518555816241046  0.41869251747259423  1.0000
  H   H16       1.0  0.2799032272303104  0.6748144423361662  0.5813074823233463  1.0000
  H   H17       1.0  0.7513819558575566  0.26195408584275975  0.29937002531658885  1.0000
  H   H18       1.0  0.2486180441629273  0.7380459137947838  0.7006299744460989  1.0000
  H   H19       1.0  0.9590345143722905  0.2229408130963379  0.20055367853406866  1.0000
  H   H20       1.0  0.04096548564819343  0.7770591865412054  0.7994463212286192  1.0000
  H   H21       1.0  0.30699179081372735  0.1913716254387053  0.2230432407514583  1.0000
  H   H22       1.0  0.6930082092309422  0.8086283750598715  0.7769567590444821  1.0000
  H   H23       1.0  0.44201123832849304  0.19952268695525194  0.3448264222466088  1.0000
  H   H24       1.0  0.5579887617151884  0.8004773135430131  0.6551735780654264  1.0000
  H   H25       1.0  0.2439574547408111  0.6250150749450779  0.922526818201183  1.0000
  H   H26       1.0  0.7560425452796727  0.3749849246924655  0.07747318156150472  1.0000
  H   H27       1.0  0.08934375989076347  0.5208177846599705  0.9512397303151492  1.0000
  H   H28       1.0  0.9106562401287324  0.47918221497726116  0.048760269963633376  1.0000
  H   H29       1.0  0.9135340355478345  0.8949186930944034  0.08762004160700122  1.0000
  H   H30       1.0  0.08646596449584713  0.10508130740386155  0.9123799587050341  1.0000
  H   H31       1.0  0.9180817260803548  0.9793387955103537  0.2100801262393585  1.0000
  H   H32       1.0  0.08191827394012917  0.020661204127189543  0.7899198735233293  1.0000
  H   H33       1.0  0.1966008852365758  0.9463487651324529  0.289668519793729  1.0000
  H   H34       1.0  0.8033991147839081  0.053651234505090524  0.7103314799689588  1.0000
  H   H35       1.0  0.46560428605451665  0.8282771523012756  0.24917692358572674  1.0000
  H   H36       1.0  0.534395713990153  0.17172284819730108  0.7508230762102137  1.0000
  H   H37       1.0  0.5940564194617766  0.6928458263660103  0.16172694517789332  1.0000
  H   H38       1.0  0.4059435805577193  0.3071541732712215  0.8382730551008892  1.0000
  H   H39       1.0  0.7273197418605  0.6944473080146265  0.05332557195846813  1.0000
  H   H40       1.0  0.27268025815899594  0.3055526916226054  0.9466744283203145  1.0000
  H   H41       1.0  0.8006763969326655  0.824447259934453  0.9636017827162782  1.0000
  H   H42       1.0  0.19932360308683028  0.17555273970277863  0.03639821756250448  1.0000
  H   H43       1.0  0.6913218155401641  0.9409331961707309  0.8663469426867282  1.0000
  H   H44       1.0  0.3086781844793317  0.05906680346650072  0.1336530575920544  1.0000
  H   H45       1.0  0.3470085361683998  0.9757064977165681  0.844300167462172  1.0000
  H   H46       1.0  0.6529914638520842  0.024293501920975187  0.15569983230051593  1.0000
  H   H47       1.0  0.10986028581871674  0.8945073424361889  0.9216801413027668  1.0000
  H   H48       1.0  0.8901397142249647  0.10549265806207608  0.07831985900926838  1.0000
  H   H49       1.0  0.5007802661082924  0.4978454026600734  0.31168627739081944  1.0000
  H   H50       1.0  0.49921973391219143  0.50215459697747  0.6883137223718685  1.0000
  H   H51       1.0  0.7485745484518599  0.41691092750671793  0.2361095631641092  1.0000
  H   H52       1.0  0.2514254515928096  0.5830890729918587  0.7638904366318312  1.0000
  H   H53       1.0  0.3869040678136801  0.41692971872132206  0.06142047660836872  1.0000
  H   H54       1.0  0.6130959322058156  0.5830702809159097  0.9385795236704139  1.0000
  H   H55       1.0  0.12571980274248612  0.5014176208472421  0.12868222051849948  1.0000
  H   H56       1.0  0.8742801972770098  0.49858237878998973  0.8713177797602831  1.0000
  H   H57       1.0  0.012251199756465695  0.6600698304576083  0.18729693726505225  1.0000
  H   H58       1.0  0.9877488002882039  0.33993017004096854  0.8127030625308882  1.0000
  H   H59       1.0  0.7586950713897104  0.7377530417700326  0.26185594426579006  1.0000
  H   H60       1.0  0.2413049286297856  0.26224695786719904  0.7381440560129925  1.0000
  H   H61       1.0  0.9374656919672083  0.5442432902960342  0.42397759643773025  1.0000
  H   H62       1.0  0.0625343080532756  0.4557567093415091  0.5760224033249576  1.0000
  H   H63       1.0  0.2114008593602809  0.46670588042466743  0.35983998381424265  1.0000
  H   H64       1.0  0.788599140660203  0.5332941192128761  0.6401600159484452  1.0000
  C   C1        1.0  0.19970798412046165  0.17333455170250153  0.50815214226072  1.0000
  C   C2        1.0  0.8002920159000222  0.8266654479350418  0.49184785750196774  1.0000
  C   C3        1.0  0.33654511317849506  0.10265468068966722  0.5377912608849336  1.0000
  C   C4        1.0  0.6634548868410008  0.8973453189475645  0.4622087393938491  1.0000
  C   C5        1.0  0.2888152392781077  0.03291962895695127  0.5903710051638961  1.0000
  C   C6        1.0  0.7111847607423761  0.967080370680592  0.4096289945987919  1.0000
  C   C7        1.0  0.1028515925892421  0.033779532511052  0.6131301984047638  1.0000
  C   C8        1.0  0.8971484074554275  0.9662204679875247  0.38686980139117666  1.0000
  C   C9        1.0  0.9662251539375838  0.10244166810728848  0.5826412309290112  1.0000
  C   C10       1.0  0.033774846107085796  0.8975583323912882  0.41735876886692924  1.0000
  C   C11       1.0  0.010259647001453346  0.1731210540809062  0.5291175291683095  1.0000
  C   C12       1.0  0.9897403530432163  0.8268789464176706  0.47088247062763106  1.0000
  C   C13       1.0  0.8626127420518136  0.24361736875521284  0.4988785324629946  1.0000
  C   C14       1.0  0.13738725796867035  0.7563826308823305  0.5011214672996931  1.0000
  C   C15       1.0  0.8486801843816469  0.2787309679009482  0.4334027453780087  1.0000
  C   C16       1.0  0.15131981563883687  0.7212690317365951  0.566597254384679  1.0000
  C   C17       1.0  0.9769478500677314  0.25297180519914586  0.3778988031743653  1.0000
  C   C18       1.0  0.023052149976938194  0.7470281952994309  0.6221011966215751  1.0000
  C   C19       1.0  0.9030917161763249  0.24700939443663783  0.3088011609712947  1.0000
  C   C20       1.0  0.09690828384415909  0.7529906052009055  0.6911988387913931  1.0000
  C   C21       1.0  0.01934676718219701  0.2248131597697206  0.25350336826043646  1.0000
  C   C22       1.0  0.9806532328372989  0.7751868398675111  0.7464966320183462  1.0000
  C   C23       1.0  0.21413207425540398  0.20659050915305072  0.266039159262204  1.0000
  C   C24       1.0  0.7858679257640919  0.7934094904841809  0.7339608410165787  1.0000
  C   C25       1.0  0.2900930754696655  0.21046158123844985  0.3338995306255067  1.0000
  C   C26       1.0  0.7099069245508185  0.7895384183990933  0.6661004691371811  1.0000
  C   C27       1.0  0.17386100045127284  0.23493984598229023  0.3893701061470071  1.0000
  C   C28       1.0  0.8261389995924087  0.7650601545159748  0.6106298941650281  1.0000
  C   C29       1.0  0.37267908781066333  0.3460793081456481  0.4754276324298078  1.0000
  C   C30       1.0  0.6273209122088326  0.6539206914915835  0.5245723678489749  1.0000
  C   C31       1.0  0.1898144316662269  0.8201571491891024  0.09959914225293863  1.0000
  C   C32       1.0  0.8101855683532688  0.17984285044812937  0.9004008580258439  1.0000
  C   C33       1.0  0.03542593485724923  0.8835250664300492  0.12316779485235539  1.0000
  C   C34       1.0  0.9645740651874203  0.11647493406852749  0.876832204943585  1.0000
  C   C35       1.0  0.03754033707320075  0.9290724433784867  0.19148344585431773  1.0000
  C   C36       1.0  0.9624596629462951  0.07092755625874493  0.8085165544244649  1.0000
  C   C37       1.0  0.19375989932516208  0.9100450068981044  0.23654691170765269  1.0000
  C   C38       1.0  0.8062401006953218  0.08995499273943884  0.7634530880550352  1.0000
  C   C39       1.0  0.34532581613131086  0.8446978730283968  0.213630808427949  1.0000
  C   C40       1.0  0.6546741838891731  0.15530212660914647  0.7863691913347388  1.0000
  C   C41       1.0  0.34827493680005717  0.799598010549051  0.14444786676114507  1.0000
  C   C42       1.0  0.6517250632446124  0.20040198994952563  0.8555521330347955  1.0000
  C   C43       1.0  0.5142888412179276  0.7367831160939567  0.12165956211286005  1.0000
  C   C44       1.0  0.4857111588257539  0.26321688440430835  0.8783404381991753  1.0000
  C   C45       1.0  0.5901976981972028  0.7369252721474475  0.0586788330737795  1.0000
  C   C46       1.0  0.4098023018464787  0.26307472835081774  0.9413211672382557  1.0000
  C   C47       1.0  0.5193545327569072  0.7983493669155801  0.9998552352593227  1.0000
  C   C48       1.0  0.4806454672877623  0.20165063358299642  0.0001447645366176041  1.0000
  C   C49       1.0  0.6493772415508515  0.8412468284087131  0.9543377287023402  1.0000
  C   C50       1.0  0.35062275849381813  0.1587531720898635  0.04566227109360025  1.0000
  C   C51       1.0  0.588122973688768  0.905110908359663  0.8994691339447083  1.0000
  C   C52       1.0  0.4118770263549135  0.09488909213860197  0.10053086636732696  1.0000
  C   C53       1.0  0.3939382607755731  0.9250421335708972  0.8872507475407415  1.0000
  C   C54       1.0  0.6060617392439228  0.07495786606633463  0.1127492527380411  1.0000
  C   C55       1.0  0.2620518162139289  0.8808695554021697  0.9304104182759102  1.0000
  C   C56       1.0  0.737948183806555  0.11913044423537361  0.0695895814867777  1.0000
  C   C57       1.0  0.3237043362556104  0.8182295455748639  0.9862618609844717  1.0000
  C   C58       1.0  0.676295663789059  0.18177045492371285  0.013738138811468839  1.0000
  C   C59       1.0  0.10458932150675597  0.6631685358171967  0.015922394364973898  1.0000
  C   C60       1.0  0.8954106785369256  0.3368314646810684  0.9840776059470613  1.0000
  C   C61       1.0  0.4682648564974832  0.481116362398156  0.25642410463918247  1.0000
  C   C62       1.0  0.5317351435471864  0.5188836381004208  0.743575895156758  1.0000
  C   C63       1.0  0.6069455315454247  0.4346152524119849  0.2141865241299741  1.0000
  C   C64       1.0  0.39305446849825687  0.5653847480862803  0.7858134761820612  1.0000
  C   C65       1.0  0.40708287726467735  0.4352525826295048  0.11723176700221763  1.0000
  C   C66       1.0  0.5929171227799922  0.5647474178690721  0.8827682327937227  1.0000
  C   C67       1.0  0.2605307961045976  0.482703075651714  0.15496252970199442  1.0000
  C   C68       1.0  0.7394692039400719  0.5172969248468627  0.845037470093946  1.0000
  C   C69       1.0  0.28932755376469227  0.5066697723243103  0.22642735079367507  1.0000
  C   C70       1.0  0.7106724462557916  0.49333022731323306  0.7735726489690128  1.0000
  C   C71       1.0  0.13480816508273633  0.5561089940492794  0.2675820215668672  1.0000
  C   C72       1.0  0.8651918349609452  0.4438910064489856  0.732417978745168  1.0000
  C   C73       1.0  0.0029345292259905418  0.6329138269069957  0.23996235861048107  1.0000
  C   C74       1.0  0.9970654707935053  0.3670861727302359  0.7600376416683015  1.0000
  C   C75       1.0  0.8593724472480552  0.6753095027444924  0.2813417315799495  1.0000
  C   C76       1.0  0.14062755277144073  0.32469049689273927  0.7186582686988332  1.0000
  C   C77       1.0  0.960617548558607  0.5697417273636631  0.371684506200195  1.0000
  C   C78       1.0  0.03938245146187681  0.4302582722738802  0.6283154935624928  1.0000
  C   C79       1.0  0.11314097860194008  0.525733736888618  0.335636099341695  1.0000
  C   C80       1.0  0.8868590214185438  0.4742662627489253  0.6643639004209929  1.0000
  N   N1        1.0  0.42353603210548957  0.36934400909302495  0.5429387111363128  1.0000
  N   N2        1.0  0.5764639679381919  0.6306559914052401  0.4570612891757225  1.0000
  N   N3        1.0  0.25647903999956195  0.25025050507989843  0.45814097536625104  1.0000
  N   N4        1.0  0.7435209600199338  0.7497494945573332  0.5418590249125315  1.0000
  N   N5        1.0  0.14077785947574364  0.604524775342062  0.9562918343101082  1.0000
  N   N6        1.0  0.8592221405679379  0.3954752251562032  0.04370816600192696  1.0000
  N   N7        1.0  0.18657597324719633  0.7720525085087033  0.02959024281291834  1.0000
  N   N8        1.0  0.8134240267722995  0.22794749112852836  0.9704097574658643  1.0000
  N   N9        1.0  0.5784117214477629  0.4104194373736981  0.14570891340544248  1.0000
  N   N10       1.0  0.4215882785969066  0.5895805631248786  0.854291086390498  1.0000
  N   N11       1.0  0.8345936114691133  0.643769762520619  0.3458046398605795  1.0000
  N   N12       1.0  0.16540638855137074  0.3562302371169245  0.6541953599021083  1.0000
  O   O1        1.0  0.4286283859482787  0.40584180295270955  0.4282154261509291  1.0000
  O   O2        1.0  0.5713716140963908  0.5941581975458671  0.5717845736450113  1.0000
  O   O3        1.0  0.9957964843607683  0.6252450184429235  0.05939846005182469  1.0000
  O   O4        1.0  0.004203515683901326  0.3747549820556532  0.9406015397441159  1.0000
