data_image0
_chemical_formula_structural       H30C22N6O6S2
_chemical_formula_sum              "H30 C22 N6 O6 S2"
_cell_length_a       6.061549041735445
_cell_length_b       7.222099974058291
_cell_length_c       14.594603742794652
_cell_angle_alpha    102.16627890947179
_cell_angle_beta     91.75898316644937
_cell_angle_gamma    94.17090380077023

_space_group_name_H-M_alt    "P 1"
_space_group_IT_number       1

loop_
  _space_group_symop_operation_xyz
  'x, y, z'

loop_
  _atom_site_type_symbol
  _atom_site_label
  _atom_site_symmetry_multiplicity
  _atom_site_fract_x
  _atom_site_fract_y
  _atom_site_fract_z
  _atom_site_occupancy
  H   H1        1.0  0.31233268169888795  0.46892070503815525  0.7298256086295869  1.0000
  H   H2        1.0  0.6876673172933369  0.5310792959372831  0.27017439156617606  1.0000
  H   H3        1.0  0.2275822385316427  0.5657147366569101  0.8953263210092227  1.0000
  H   H4        1.0  0.7724177619893554  0.4342852629074137  0.10467367905622946  1.0000
  H   H5        1.0  0.8373491680015299  0.35197004769267903  0.975346506957589  1.0000
  H   H6        1.0  0.16265083251946827  0.6480299518716447  0.024653493107863234  1.0000
  H   H7        1.0  0.920217161529372  0.2589434941483524  0.8099384269199671  1.0000
  H   H8        1.0  0.07978283911424562  0.7410565068370616  0.19006157329378506  1.0000
  H   H9        1.0  0.7435902564001735  0.880533981157449  0.6202197205089467  1.0000
  H   H10       1.0  0.25640974246943155  0.11946601839689905  0.3797802795385162  1.0000
  H   H11       1.0  0.7479592298436332  0.6329936786760842  0.6070006734571958  1.0000
  H   H12       1.0  0.2520407706773648  0.3670063208882396  0.39299932660825637  1.0000
  H   H13       1.0  0.3097218614061168  0.6209945510223851  0.5603700069098648  1.0000
  H   H14       1.0  0.6902781391148812  0.3790054485419386  0.43962999315558743  1.0000
  H   H15       1.0  0.08737582408384827  0.5027263246919419  0.6025605142512388  1.0000
  H   H16       1.0  0.9126241764371498  0.4972736748723819  0.3974394858142134  1.0000
  H   H17       1.0  0.05175877994144569  0.06174241415574028  0.5962083346187624  1.0000
  H   H18       1.0  0.9482412189281593  0.9382575853986076  0.4037916654287003  1.0000
  H   H19       1.0  0.3110006230088042  0.974022703634685  0.5924281481958901  1.0000
  H   H20       1.0  0.6889993775121938  0.025977295929638915  0.407571851869562  1.0000
  H   H21       1.0  0.43885742837038816  0.9763095105184535  0.8506074974431064  1.0000
  H   H22       1.0  0.5611425722732297  0.02369049046696051  0.14939250277064595  1.0000
  H   H23       1.0  0.22446949367080624  0.06680955072159953  0.7929988053566089  1.0000
  H   H24       1.0  0.7755305053214185  0.9331904502538387  0.207001194839154  1.0000
  H   H25       1.0  0.22383042479421222  0.8189692686763511  0.7845882116580829  1.0000
  H   H26       1.0  0.7761695740753928  0.18103073087799695  0.21541178838938008  1.0000
  H   H27       1.0  0.8355221458869347  0.8124653874144113  0.8476891483804817  1.0000
  H   H28       1.0  0.1644778546239094  0.18753461214681014  0.1523108509993465  1.0000
  H   H29       1.0  0.3858660281716518  0.14386849435946447  0.01046430869312398  1.0000
  H   H30       1.0  0.6141339706979533  0.8561315051948836  0.9895356913543388  1.0000
  C   C1        1.0  0.6224315662847115  0.3592502898483331  0.759835239917931  1.0000
  C   C2        1.0  0.37756843258489353  0.640749709706015  0.24016476012953178  1.0000
  C   C3        1.0  0.42689895094882724  0.4444215925136754  0.7840676953642319  1.0000
  C   C4        1.0  0.5731010496947906  0.5555784084717386  0.21593230484952042  1.0000
  C   C5        1.0  0.38021872384388994  0.49841924604097076  0.8782042228553945  1.0000
  C   C6        1.0  0.6197812750257151  0.5015807535133773  0.12179577719206842  1.0000
  C   C7        1.0  0.525377217782947  0.4693786940296031  0.9500006267078053  1.0000
  C   C8        1.0  0.474622781086658  0.530621305524745  0.049999373339657545  1.0000
  C   C9        1.0  0.7200577905483686  0.38091972379832756  0.9232175953060123  1.0000
  C   C10       1.0  0.27994221009524917  0.6190802771870865  0.07678240490773987  1.0000
  C   C11       1.0  0.7686715967850819  0.32648653843496944  0.8294057654287671  1.0000
  C   C12       1.0  0.23132840385853584  0.6735134625504446  0.1705942347849851  1.0000
  C   C13       1.0  0.04757178034142452  0.7797678649379481  0.5996094747786922  1.0000
  C   C14       1.0  0.9524282201795737  0.22023213462637564  0.40039052528675995  1.0000
  C   C15       1.0  0.26051873859063146  0.9575938275427395  0.8324567956181204  1.0000
  C   C16       1.0  0.7394812602789737  0.04240617201160854  0.16754320442934253  1.0000
  C   C17       1.0  0.12734666062011  0.9762812390610554  0.9186199022776743  1.0000
  C   C18       1.0  0.8726533383721148  0.02371876191438288  0.08138009791808865  1.0000
  C   C19       1.0  0.9089068452796693  0.8950516086414698  0.9145057353927672  1.0000
  C   C20       1.0  0.09109315524132891  0.10494839092285402  0.0854942646726849  1.0000
  C   C21       1.0  0.2158573381355295  0.08088351695894092  0.005635722519785056  1.0000
  C   C22       1.0  0.7841426623854687  0.9191164826053828  0.994364277545667  1.0000
  N   N1        1.0  0.8328995216852965  0.7641841317641803  0.6179887648557704  1.0000
  N   N2        1.0  0.1671004788357016  0.2358158678001434  0.38201123520968167  1.0000
  N   N3        1.0  0.166927489036134  0.6284703258041532  0.5951042995185128  1.0000
  N   N4        1.0  0.833072509833471  0.3715296737501948  0.4048957005289501  1.0000
  N   N5        1.0  0.14249578631557644  0.9457512180927081  0.5888961752656978  1.0000
  N   N6        1.0  0.8575042142054218  0.05424878147161558  0.4111038247997543  1.0000
  O   O1        1.0  0.5709235963136836  0.40009521632833617  0.586727728241042  1.0000
  O   O2        1.0  0.4290764043299341  0.5999047846570776  0.41327227197271016  1.0000
  O   O3        1.0  0.9244794148368936  0.2968596739458079  0.6366617215416633  1.0000
  O   O4        1.0  0.07552058568410452  0.7031403256185158  0.36333827852378875  1.0000
  O   O5        1.0  0.5912956144771015  0.07897331794771806  0.6142324596699079  1.0000
  O   O6        1.0  0.4087043860438966  0.9210266816166057  0.38576754039554423  1.0000
  S   S1        1.0  0.6808653536393714  0.27924894466967537  0.6403699128866092  1.0000
  S   S2        1.0  0.3191346468816268  0.7207510548946484  0.35963008717884304  1.0000
