data_image0
_chemical_formula_structural       H60C44N12O12S4
_chemical_formula_sum              "H60 C44 N12 O12 S4"
_cell_length_a       9.084864575252551
_cell_length_b       9.881933612392418
_cell_length_c       13.99954128811184
_cell_angle_alpha    83.81814846452745
_cell_angle_beta     83.32243785390371
_cell_angle_gamma    79.94506349171353

_space_group_name_H-M_alt    "P 1"
_space_group_IT_number       1

loop_
  _space_group_symop_operation_xyz
  'x, y, z'

loop_
  _atom_site_type_symbol
  _atom_site_label
  _atom_site_symmetry_multiplicity
  _atom_site_fract_x
  _atom_site_fract_y
  _atom_site_fract_z
  _atom_site_occupancy
  H   H1        1.0  0.43837438457516775  0.9876997819116541  0.7139343353041285  1.0000
  H   H2        1.0  0.5616256148016653  0.01230021780951665  0.28606566482788814  1.0000
  H   H3        1.0  0.46298898617775686  0.08277347746547874  0.5437432183772022  1.0000
  H   H4        1.0  0.5370110143084103  0.9172265222494992  0.4562567816699764  1.0000
  H   H5        1.0  0.045847953970831225  0.36209849446342396  0.5940660230048341  1.0000
  H   H6        1.0  0.9541520465153357  0.637901505251554  0.4059339770423446  1.0000
  H   H7        1.0  0.022942294329614272  0.2696641244541897  0.76407981955062  1.0000
  H   H8        1.0  0.9770577059787956  0.7303358762926108  0.23592018042719948  1.0000
  H   H9        1.0  0.024408965026802617  0.35303375165543227  0.45141866786611745  1.0000
  H   H10       1.0  0.9755910354593645  0.6469662480595457  0.5485813321810612  1.0000
  H   H11       1.0  0.03913158495854439  0.4445717294396008  0.28125965966128386  1.0000
  H   H12       1.0  0.9608684155276225  0.5554282702753772  0.7187403403858948  1.0000
  H   H13       1.0  0.5167558163647538  0.2943349319096333  0.2514821161993626  1.0000
  H   H14       1.0  0.48324418412001097  0.7056650677990864  0.7485178831341034  1.0000
  H   H15       1.0  0.5041876649129229  0.21016671161889264  0.42253215675531625  1.0000
  H   H16       1.0  0.495812334286153  0.7898332891341009  0.5774678433073415  1.0000
  H   H17       1.0  0.534021696208026  0.31680041810331816  0.8899297725600034  1.0000
  H   H18       1.0  0.4659783042781411  0.6831995816116597  0.11007022748717521  1.0000
  H   H19       1.0  0.41731635711094245  0.1901653532134654  0.9108955703018213  1.0000
  H   H20       1.0  0.5826836433752246  0.8098346465015126  0.08910442974535719  1.0000
  H   H21       1.0  0.7130643933509351  0.9112864882337716  0.9213594299699099  1.0000
  H   H22       1.0  0.28693560584814093  0.08871351251922206  0.07864057009274761  1.0000
  H   H23       1.0  0.5287553677391802  0.9594783046722464  0.8934271273756941  1.0000
  H   H24       1.0  0.47124463145989587  0.040521696080747065  0.10657287268696358  1.0000
  H   H25       1.0  0.787696069691723  0.2580809278765185  0.8957301228070179  1.0000
  H   H26       1.0  0.21230393079444398  0.7419190718384594  0.10426987724016064  1.0000
  H   H27       1.0  0.8768398287432838  0.08728082494932395  0.8894677685878537  1.0000
  H   H28       1.0  0.12316017156512621  0.9127191757974765  0.11053223138996565  1.0000
  H   H29       1.0  0.7086833434238081  0.24439604310424395  0.09452009416978184  1.0000
  H   H30       1.0  0.2913166570623588  0.755603956610734  0.9054799058773967  1.0000
  H   H31       1.0  0.6199387066927285  0.4156957595017812  0.09928273724857495  1.0000
  H   H32       1.0  0.3800612926841044  0.5843042402193896  0.9007172628834418  1.0000
  H   H33       1.0  0.961759960214636  0.18446843933994658  0.10640184271644844  1.0000
  H   H34       1.0  0.038240038984439964  0.815531561413047  0.8935981573462092  1.0000
  H   H35       1.0  0.07824461101312641  0.3109528659751474  0.09063021471285275  1.0000
  H   H36       1.0  0.9217553894716385  0.6890471337335723  0.9093697846206132  1.0000
  H   H37       1.0  0.7871444405497721  0.5900868417515718  0.06952027541533246  1.0000
  H   H38       1.0  0.21285555864930408  0.4099131590014217  0.9304797246473251  1.0000
  H   H39       1.0  0.9663895414974815  0.5409526753097909  0.10594718529416843  1.0000
  H   H40       1.0  0.033610457701594584  0.4590473254432027  0.8940528147684892  1.0000
  H   H41       1.0  0.8666422667259708  0.18859763602997878  0.290456550189239  1.0000
  H   H42       1.0  0.13335773358243916  0.8114023647168217  0.7095434497885805  1.0000
  H   H43       1.0  0.8859207652588615  0.018760557319000917  0.43388371295975336  1.0000
  H   H44       1.0  0.11407923411797158  0.98123944240217  0.5661162871722634  1.0000
  H   H45       1.0  0.6433290296368734  0.5010867517167281  0.4737533872431774  1.0000
  H   H46       1.0  0.35667096973995965  0.4989132480044427  0.5262466128888393  1.0000
  H   H47       1.0  0.7439955439039306  0.4329826001689286  0.31041518817420866  1.0000
  H   H48       1.0  0.2560044565822364  0.5670173995460492  0.6895848118729698  1.0000
  H   H49       1.0  0.844456843235682  0.9554920845715176  0.6014281475895298  1.0000
  H   H50       1.0  0.15554315613974884  0.0445079151433952  0.39857185182877436  1.0000
  H   H51       1.0  0.6850991270942636  0.05005322806596147  0.6642937770985383  1.0000
  H   H52       1.0  0.3149008733919033  0.9499467716490166  0.3357062229486402  1.0000
  H   H53       1.0  0.8646701061001556  0.0880281442444262  0.6726513173236247  1.0000
  H   H54       1.0  0.13532989420685224  0.911971856496116  0.3273486819404821  1.0000
  H   H55       1.0  0.5906685681053832  0.45086968030981145  0.6410785656296583  1.0000
  H   H56       1.0  0.4093314323807839  0.5491303194051663  0.3589214344175202  1.0000
  H   H57       1.0  0.7309898105627253  0.32805936931278806  0.6949387862989436  1.0000
  H   H58       1.0  0.26901018992344167  0.6719406304021899  0.30506121374823497  1.0000
  H   H59       1.0  0.5589800053523023  0.27983046347184337  0.6781493863162302  1.0000
  H   H60       1.0  0.44101999495610755  0.7201695372749571  0.3218506136615893  1.0000
  C   C1        1.0  0.2287249006904453  0.12084856727003734  0.7489718578873512  1.0000
  C   C2        1.0  0.7712750997957216  0.8791514324449405  0.25102814215982744  1.0000
  C   C3        1.0  0.35344403960043347  0.07056755281004919  0.6873460518926169  1.0000
  C   C4        1.0  0.6465559597749974  0.9294324469048635  0.3126539475256872  1.0000
  C   C5        1.0  0.36610281098982317  0.12432781480642437  0.5913223648956918  1.0000
  C   C6        1.0  0.6338971883856077  0.8756721849084884  0.4086776345226123  1.0000
  C   C7        1.0  0.25466662104788984  0.22722027552147545  0.5547524272918334  1.0000
  C   C8        1.0  0.7453333783289432  0.7727797241996954  0.4452475728401833  1.0000
  C   C9        1.0  0.1321494937526142  0.27937780762588005  0.6192903881882175  1.0000
  C   C10       1.0  0.8678505056242188  0.7206221920952909  0.3807096119437992  1.0000
  C   C11       1.0  0.11866537627434416  0.22731660811738297  0.7155840808010806  1.0000
  C   C12       1.0  0.8813346242118227  0.7726833915975948  0.28441591924609794  1.0000
  C   C13       1.0  0.2635203065508213  0.27670897701740443  0.451347198060929  1.0000
  C   C14       1.0  0.7364796939353457  0.7232910226975735  0.5486528019862495  1.0000
  C   C15       1.0  0.133606842789841  0.3422349650125198  0.4090888806851039  1.0000
  C   C16       1.0  0.866393157696326  0.6577650347024581  0.5909111193620746  1.0000
  C   C17       1.0  0.14074186136554656  0.3921692338422265  0.3122354817959859  1.0000
  C   C18       1.0  0.8592581378335293  0.607830766910767  0.6877645182666716  1.0000
  C   C19       1.0  0.2786034303301915  0.3758874907695579  0.25561364290272226  1.0000
  C   C20       1.0  0.7213965690466416  0.6241125089516131  0.7443863572292945  1.0000
  C   C21       1.0  0.4085354042261988  0.30637814948920794  0.294985855451247  1.0000
  C   C22       1.0  0.5914645949728772  0.6936218512637855  0.7050141446114107  1.0000
  C   C23       1.0  0.4005016677215708  0.25816803595285853  0.39220207466597184  1.0000
  C   C24       1.0  0.5994983316538601  0.7418319637620542  0.6077979247523322  1.0000
  C   C25       1.0  0.6447220100021056  0.11888926576144453  0.8941812208618755  1.0000
  C   C26       1.0  0.35527799048406145  0.8811107339535333  0.10581877918530305  1.0000
  C   C27       1.0  0.8510592841160439  0.38288844231849234  0.10002734196438233  1.0000
  C   C28       1.0  0.14894071526078917  0.6171115574026786  0.8999726581676344  1.0000
  C   C29       1.0  0.8211658458695411  0.2205299609003092  0.36160084851708846  1.0000
  C   C30       1.0  0.17883415461662588  0.7794700388146687  0.6383991515300901  1.0000
  C   C31       1.0  0.8327441291329931  0.125066737947911  0.44276219820123486  1.0000
  C   C32       1.0  0.16725587024383995  0.8749332617732598  0.5572378019307819  1.0000
  C   C33       1.0  0.7776958801260436  0.16212317690463993  0.5357199067574685  1.0000
  C   C34       1.0  0.22230411907303238  0.8378768238483535  0.46428009330518916  1.0000
  C   C35       1.0  0.7073157322267839  0.2997586018585028  0.5468026750609923  1.0000
  C   C36       1.0  0.29268426808162606  0.7002413988882977  0.4531973249168271  1.0000
  C   C37       1.0  0.6973749865262506  0.3949212922017154  0.4649083827106626  1.0000
  C   C38       1.0  0.302625013780757  0.605078708538827  0.5350916165534443  1.0000
  C   C39       1.0  0.7536618925246432  0.3566353005752889  0.37274110738844857  1.0000
  C   C40       1.0  0.2463381068521899  0.643364699145882  0.6272588927435683  1.0000
  C   C41       1.0  0.7937501224907292  0.058357318977655614  0.622283785745581  1.0000
  C   C42       1.0  0.20624987799543773  0.9416426807373223  0.3777162143015976  1.0000
  C   C43       1.0  0.6435698834729952  0.34236573267179954  0.6448790935563398  1.0000
  C   C44       1.0  0.3564301168354148  0.6576342680750009  0.3551209064214797  1.0000
  N   N1        1.0  0.5216785745157189  0.21544462894129737  0.89178026677744  1.0000
  N   N2        1.0  0.47832142597044813  0.7845553707736805  0.10821973326973854  1.0000
  N   N3        1.0  0.633251914351234  0.9852408676046857  0.8935381693993882  1.0000
  N   N4        1.0  0.36674808613493304  0.014759132110292252  0.10646183064779043  1.0000
  N   N5        1.0  0.7787439739817946  0.15678909803013577  0.893349680716965  1.0000
  N   N6        1.0  0.22125602539503847  0.8432109016910352  0.10665031941505182  1.0000
  N   N7        1.0  0.7178783174234304  0.34611708623821263  0.09535918784109955  1.0000
  N   N8        1.0  0.28212168195340254  0.6538829134829582  0.9046408122909172  1.0000
  N   N9        1.0  0.9730450338826657  0.28600994712508826  0.10629638120616955  1.0000
  N   N10       1.0  0.02695496642574412  0.7139900536217122  0.8937036187716499  1.0000
  N   N11       1.0  0.8621547822271005  0.5165212549592646  0.10252416439513155  1.0000
  N   N12       1.0  0.1378452182590664  0.48347874475571345  0.897475835652047  1.0000
  O   O1        1.0  0.2052042405077751  0.15753501782090376  0.9320774453156198  1.0000
  O   O2        1.0  0.7947957588690577  0.842464981900267  0.06792255481639697  1.0000
  O   O3        1.0  0.3356348360503629  0.9341760329107522  0.8802426686614495  1.0000
  O   O4        1.0  0.6643651633264703  0.06582396681041856  0.11975733147056737  1.0000
  O   O5        1.0  0.06363567871061357  0.9929765630326668  0.8802949613724994  1.0000
  O   O6        1.0  0.9363643217755535  0.007023436682311296  0.11970503867467926  1.0000
  O   O7        1.0  0.4315059631270486  0.5065319286563891  0.1181568178926482  1.0000
  O   O8        1.0  0.5684940371813615  0.49346807209041144  0.8818431820851714  1.0000
  O   O9        1.0  0.2859489792872715  0.34092125879597024  0.07225853737438373  1.0000
  O   O10       1.0  0.7140510210211385  0.6590787419508303  0.9277414626034358  1.0000
  O   O11       1.0  0.1578050229856987  0.5618453266557367  0.129151137657452  1.0000
  O   O12       1.0  0.8421949775004683  0.4381546730592412  0.8708488623897266  1.0000
  S   S1        1.0  0.20680228007026177  0.046690384093375066  0.8697619170263791  1.0000
  S   S2        1.0  0.7931977193065713  0.9533096156277958  0.1302380831056376  1.0000
  S   S3        1.0  0.28955430373089397  0.45107713962496965  0.13454838856647222  1.0000
  S   S4        1.0  0.710445696577516  0.5489228611218308  0.8654516114113473  1.0000
