data_image0
_chemical_formula_structural       H40C44N4O12
_chemical_formula_sum              "H40 C44 N4 O12"
_cell_length_a       7.143226125830209
_cell_length_b       7.82210858921796
_cell_length_c       16.81984829269395
_cell_angle_alpha    89.20411835776258
_cell_angle_beta     86.00271398626741
_cell_angle_gamma    99.54364605568543

_space_group_name_H-M_alt    "P 1"
_space_group_IT_number       1

loop_
  _space_group_symop_operation_xyz
  'x, y, z'

loop_
  _atom_site_type_symbol
  _atom_site_label
  _atom_site_symmetry_multiplicity
  _atom_site_fract_x
  _atom_site_fract_y
  _atom_site_fract_z
  _atom_site_occupancy
  H   H1        1.0  0.24381353825364174  0.5545878596553612  0.49094480562633264  1.0000
  H   H2        1.0  0.7561864628985532  0.44541214017276215  0.5090551946992632  1.0000
  H   H3        1.0  0.07286411594164495  0.8090947862570697  0.27756139108550293  1.0000
  H   H4        1.0  0.9271358838196014  0.19090521358233806  0.7224386086823443  1.0000
  H   H5        1.0  0.9666906110840695  0.7041844104886779  0.14696658594451098  1.0000
  H   H6        1.0  0.03330938867717676  0.2958155893507299  0.8530334138233363  1.0000
  H   H7        1.0  0.8632288594227435  0.45876764560684574  0.05851139363909801  1.0000
  H   H8        1.0  0.1367711403385028  0.5412323542325621  0.9414886061287493  1.0000
  H   H9        1.0  0.8453285936717234  0.1534926080840151  0.1085910512766856  1.0000
  H   H10       1.0  0.15467140608952307  0.8465073917553928  0.8914089484911617  1.0000
  H   H11       1.0  0.9378520943173176  0.09298868986425513  0.24310886372613763  1.0000
  H   H12       1.0  0.062147906834877226  0.9070113099638683  0.7568911365994581  1.0000
  H   H13       1.0  0.06807706802791019  0.2001193061846011  0.370622770230095  1.0000
  H   H14       1.0  0.9319229317226964  0.7998806936526812  0.6293772301326  1.0000
  H   H15       1.0  0.34050141740537127  0.20267997482718716  0.6678094618194527  1.0000
  H   H16       1.0  0.6594985823452352  0.7973200250100951  0.33219053854324226  1.0000
  H   H17       1.0  0.4110890821527154  0.6788458570601084  0.6099622853130647  1.0000
  H   H18       1.0  0.5889109190101194  0.32115414277014037  0.39003771441768326  1.0000
  H   H19       1.0  0.5272047405666355  0.4272648371731677  0.834551107705252  1.0000
  H   H20       1.0  0.47279525919461085  0.57273516266624  0.16544889206259522  1.0000
  H   H21       1.0  0.6444945496172468  0.5366458264407057  0.9624579704837954  1.0000
  H   H22       1.0  0.3555054501333596  0.4633541733965766  0.037542029878899597  1.0000
  H   H23       1.0  0.752573245944687  0.7843103697076461  0.048961154474952875  1.0000
  H   H24       1.0  0.24742675381655924  0.21568963013176162  0.9510388452928943  1.0000
  H   H25       1.0  0.7783325292221489  0.0884668458122791  0.9960712464830349  1.0000
  H   H26       1.0  0.22166747053909744  0.9115331540271286  0.003928753284812228  1.0000
  H   H27       1.0  0.6938978734300062  0.145246913861792  0.8593446059914237  1.0000
  H   H28       1.0  0.3061021263312402  0.8547530859776158  0.14065539377642353  1.0000
  H   H29       1.0  0.5809211438473291  0.03561763368191653  0.7301195568644285  1.0000
  H   H30       1.0  0.41907885591391725  0.9643823661574912  0.2698804429034186  1.0000
  H   H31       1.0  0.27115172206437155  0.2662604969949898  0.5161310242775163  1.0000
  H   H32       1.0  0.7288482776968748  0.7337395028444179  0.48386897549033087  1.0000
  H   H33       1.0  0.2589720272161547  0.06311853023307737  0.48081907998461193  1.0000
  H   H34       1.0  0.7410279725450916  0.9368814696063305  0.5191809197832352  1.0000
  H   H35       1.0  0.4656612970065184  0.17163282374055303  0.5194437043907526  1.0000
  H   H36       1.0  0.5343387027547278  0.8283671760988547  0.48055629537709454  1.0000
  H   H37       1.0  0.29775543298886836  0.9610812633513443  0.6100779804752232  1.0000
  H   H38       1.0  0.7022445667617382  0.03891873648593819  0.3899220198874718  1.0000
  H   H39       1.0  0.10633922507137841  0.06378649197114672  0.6081498472978442  1.0000
  H   H40       1.0  0.8936607746898679  0.936213507868261  0.39185015247000304  1.0000
  C   C1        1.0  0.188228867041872  0.7893120626538165  0.42571355220276835  1.0000
  C   C2        1.0  0.8117711343688251  0.21068793847320222  0.5742864475132701  1.0000
  C   C3        1.0  0.12560751796765887  0.6438421396567208  0.37248367322587256  1.0000
  C   C4        1.0  0.8743924817935874  0.356157860182687  0.6275163265419748  1.0000
  C   C5        1.0  0.06992117257148808  0.6751653867908215  0.29722095087370437  1.0000
  C   C6        1.0  0.9300788285807069  0.3248346130373019  0.7027790494518915  1.0000
  C   C7        1.0  0.012757317225921412  0.5388719332069124  0.2453731136712668  1.0000
  C   C8        1.0  0.9872426825246851  0.4611280666303699  0.7546268866914282  1.0000
  C   C9        1.0  0.9613921072329379  0.5699467145430388  0.16706353776694696  1.0000
  C   C10       1.0  0.03860789251766861  0.43005328529424347  0.832936462595748  1.0000
  C   C11       1.0  0.9033623380225145  0.4337864770089716  0.1184231355705981  1.0000
  C   C12       1.0  0.0966376617387317  0.5662135228304361  0.8815768641972491  1.0000
  C   C13       1.0  0.8932375959590739  0.26089291973130174  0.14669558591746693  1.0000
  C   C14       1.0  0.1067624052037609  0.7391070800989471  0.853304413813281  1.0000
  C   C15       1.0  0.9435565613764387  0.22644850954867007  0.22206749159648068  1.0000
  C   C16       1.0  0.056443438384807657  0.7735514902907378  0.7779325081713666  1.0000
  C   C17       1.0  0.005940100461282475  0.3632934743550593  0.273483347077669  1.0000
  C   C18       1.0  0.9940599006909124  0.6367065254730642  0.7265166532479267  1.0000
  C   C19       1.0  0.06409313444883967  0.3321009115399009  0.350121199821074  1.0000
  C   C20       1.0  0.9359068653124067  0.6678990882995068  0.6498787999467732  1.0000
  C   C21       1.0  0.1266611172430503  0.4685147283923447  0.39808283813284717  1.0000
  C   C22       1.0  0.8733388825181961  0.531485271447063  0.6019171616350001  1.0000
  C   C23       1.0  0.42009031860629215  0.4485730475061148  0.6834506596850383  1.0000
  C   C24       1.0  0.5799096811549542  0.551426952333293  0.316549340082809  1.0000
  C   C25       1.0  0.49077242536307936  0.5907303444791436  0.7357397465637755  1.0000
  C   C26       1.0  0.5092275743875271  0.4092696553581386  0.2642602537989193  1.0000
  C   C27       1.0  0.5401335895957384  0.5606280010018545  0.8123440059260165  1.0000
  C   C28       1.0  0.459866410165508  0.4393719988375533  0.18765599384183076  1.0000
  C   C29       1.0  0.6047420416263564  0.6987009687874248  0.862070478742753  1.0000
  C   C30       1.0  0.39525795813489  0.30129903105198297  0.13792952102509418  1.0000
  C   C31       1.0  0.654611345996936  0.6702248326890712  0.9408165155610023  1.0000
  C   C32       1.0  0.34538865401217267  0.3297751684471065  0.059183484192135254  1.0000
  C   C33       1.0  0.7156766698126649  0.8076277617643479  0.988375138184884  1.0000
  C   C34       1.0  0.28432332994858156  0.1923722380750598  0.01162486158296319  1.0000
  C   C35       1.0  0.7306053068114485  0.9799690364601443  0.9583898977272833  1.0000
  C   C36       1.0  0.2693946929497979  0.02003096337926351  0.04161010204056381  1.0000
  C   C37       1.0  0.6838551316621287  0.01249159368725093  0.8821496171501783  1.0000
  C   C38       1.0  0.31614486808847764  0.9875084061500313  0.11785038321251672  1.0000
  C   C39       1.0  0.6198955638795359  0.8738063714969908  0.8317913120063122  1.0000
  C   C40       1.0  0.3801044358710706  0.12619362834029146  0.16820868835638286  1.0000
  C   C41       1.0  0.5711288638659842  0.9035584196299147  0.7535638951795791  1.0000
  C   C42       1.0  0.4288711358952621  0.09644158020949305  0.2464361045882681  1.0000
  C   C43       1.0  0.5070534878845325  0.766216460290999  0.7063957068699535  1.0000
  C   C44       1.0  0.4929465118767138  0.23378353954840883  0.29360429289789375  1.0000
  N   N1        1.0  0.3165092053628736  0.14762127195820576  0.5254688337517259  1.0000
  N   N2        1.0  0.683490794646235  0.8523787291779719  0.4745311660014118  1.0000
  N   N3        1.0  0.25411457017466177  0.08026830063991561  0.6050003708208197  1.0000
  N   N4        1.0  0.7458854295865845  0.9197316991994922  0.3949996289470275  1.0000
  O   O1        1.0  0.14183195832819975  0.937082984873618  0.41368378376489806  1.0000
  O   O2        1.0  0.8581680414330467  0.0629170149657898  0.5863162160029491  1.0000
  O   O3        1.0  0.28971199981705864  0.7592959362713115  0.48323152187995033  1.0000
  O   O4        1.0  0.7102879999441877  0.2407040635680962  0.5167684778878968  1.0000
  O   O5        1.0  0.18776381716681737  0.4366395450692387  0.47057121409563923  1.0000
  O   O6        1.0  0.8122361839960174  0.5633604547610102  0.5294287856351088  1.0000
  O   O7        1.0  0.3783531148278949  0.4792257663893293  0.613690346716575  1.0000
  O   O8        1.0  0.6216468849333515  0.5207742334500784  0.3863096530512723  1.0000
  O   O9        1.0  0.4015813506339431  0.2887829269587724  0.7122770909249668  1.0000
  O   O10       1.0  0.5984186491166634  0.7112170728785099  0.2877229094377281  1.0000
  O   O11       1.0  0.4574211175293433  0.7984272914993795  0.6319808713055725  1.0000
  O   O12       1.0  0.542578882231903  0.20157270834002813  0.3680191284622748  1.0000
