data_image0
_chemical_formula_structural       H28C28N4O12Br4
_chemical_formula_sum              "H28 C28 N4 O12 Br4"
_cell_length_a       12.30461509811528
_cell_length_b       4.7979328875313625
_cell_length_c       14.175692603240982
_cell_angle_alpha    90.0
_cell_angle_beta     102.92617005300045
_cell_angle_gamma    90.0

_space_group_name_H-M_alt    "P 1"
_space_group_IT_number       1

loop_
  _space_group_symop_operation_xyz
  'x, y, z'

loop_
  _atom_site_type_symbol
  _atom_site_label
  _atom_site_symmetry_multiplicity
  _atom_site_fract_x
  _atom_site_fract_y
  _atom_site_fract_z
  _atom_site_occupancy
  H   H1        1.0  0.8182823774813437  0.5984423682669178  0.05280037151794545  1.0000
  H   H2        1.0  0.1817176218239478  0.09844236696754183  0.44719962849152983  1.0000
  H   H3        1.0  0.1817176221385937  0.40155763224760327  0.9471996278282828  1.0000
  H   H4        1.0  0.8182823779856385  0.9015576314627483  0.552800371578467  1.0000
  H   H5        1.0  0.5668843381792604  0.23993155114604034  0.04446753997707214  1.0000
  H   H6        1.0  0.4331156619380107  0.7399315503611854  0.45553246002961933  1.0000
  H   H7        1.0  0.4331156624423056  0.7600684493684808  0.9555324600901408  1.0000
  H   H8        1.0  0.5668843378715755  0.2600684501533357  0.5444675400403775  1.0000
  H   H9        1.0  0.09701695089224313  0.9919984442401996  0.036910572811622806  1.0000
  H   H10       1.0  0.9029830492250279  0.49199844502505446  0.4630894271950687  1.0000
  H   H11       1.0  0.9029830489173432  0.00800155627432149  0.963089427258374  1.0000
  H   H12       1.0  0.09701695058455828  0.5080015554894666  0.5369105728749282  1.0000
  H   H13       1.0  0.9631473483675668  0.3486527092421872  0.1783701130585565  1.0000
  H   H14       1.0  0.03685265174970436  0.8486527084573323  0.321629886948135  1.0000
  H   H15       1.0  0.0368526514420195  0.6513472912723338  0.8216298870114404  1.0000
  H   H16       1.0  0.9631473480598819  0.15134728997295785  0.6783701131218619  1.0000
  H   H17       1.0  0.1535765922566734  0.26316070891305204  0.2814836327831402  1.0000
  H   H18       1.0  0.8464234078605978  0.7631607081281971  0.21851636722355128  1.0000
  H   H19       1.0  0.846423407552913  0.7368392916014691  0.7185163672868566  1.0000
  H   H20       1.0  0.15357659175933946  0.23683929030209308  0.7814836321226769  1.0000
  H   H21       1.0  0.3147451494470039  0.5525650925401091  0.258118054080439  1.0000
  H   H22       1.0  0.6852548498582876  0.05256509332496398  0.2418819459290363  1.0000
  H   H23       1.0  0.6852548503625825  0.447434907974412  0.7418819459895578  1.0000
  H   H24       1.0  0.3147451499512988  0.9474349071895571  0.7581180541409606  1.0000
  H   H25       1.0  0.2780952100620413  0.9218931535067428  0.1261231942962402  1.0000
  H   H26       1.0  0.7219047900552299  0.42189315429159774  0.37387680571045134  1.0000
  H   H27       1.0  0.7219047897475449  0.07810684492354739  0.8738768057737566  1.0000
  H   H28       1.0  0.2780952105663362  0.5781068462229234  0.6261231943567618  1.0000
  C   C1        1.0  0.6552455619417409  0.6199721650401172  0.021965822797634458  1.0000
  C   C2        1.0  0.3447544381755303  0.11997216582497214  0.47803417720905705  1.0000
  C   C3        1.0  0.34475443849017623  0.3800278354744039  0.97803417654581  1.0000
  C   C4        1.0  0.655245561634056  0.8800278346895488  0.5219658228609397  1.0000
  C   C5        1.0  0.5524389141863937  0.4646247211571544  0.03676102535031848  1.0000
  C   C6        1.0  0.44756108593087746  0.9646247224565303  0.46323897465637304  1.0000
  C   C7        1.0  0.44756108562319263  0.5353752772731357  0.9632389747196782  1.0000
  C   C8        1.0  0.5524389138787088  0.035375278057990664  0.5367610254136238  1.0000
  C   C9        1.0  0.01712838770480014  0.6875365511203052  0.09988772924775496  1.0000
  C   C10       1.0  0.982871612412471  0.18753655190516008  0.40011227075893646  1.0000
  C   C11       1.0  0.9828716121047861  0.31246344939421594  0.9001122708222419  1.0000
  C   C12       1.0  0.017128387397115256  0.8124634486093609  0.5998877293110602  1.0000
  C   C13       1.0  0.03453704485728963  0.47342234317260495  0.17072507586531366  1.0000
  C   C14       1.0  0.9654629544480018  0.9734223423877499  0.3292749241441616  1.0000
  C   C15       1.0  0.9654629549522967  0.5265776573419162  0.8292749242046831  1.0000
  C   C16       1.0  0.03453704536158454  0.026577656042540147  0.6707250759258352  1.0000
  C   C17       1.0  0.1400443446471477  0.42685427203917153  0.22687286216198888  1.0000
  C   C18       1.0  0.8599556554701235  0.9268542712543165  0.2731271378447026  1.0000
  C   C19       1.0  0.8599556559744185  0.5731457284753495  0.7731271379052241  1.0000
  C   C20       1.0  0.14004434433946286  0.07314572926020445  0.7268728622252941  1.0000
  C   C21       1.0  0.23149172483871197  0.5875763575864674  0.21432905622887083  1.0000
  C   C22       1.0  0.7685082752785591  0.08757635837132234  0.28567094377782065  1.0000
  C   C23       1.0  0.7685082747812253  0.4124236429280536  0.7856709431173573  1.0000
  C   C24       1.0  0.23149172453102712  0.9124236421431987  0.7143290562921761  1.0000
  C   C25       1.0  0.21342661747769012  0.7903167611731655  0.14405621204634647  1.0000
  C   C26       1.0  0.7865733826395811  0.2903167619580204  0.355943787960345  1.0000
  C   C27       1.0  0.7865733823318961  0.2096832372571247  0.8559437880236503  1.0000
  C   C28       1.0  0.21342661798198503  0.7096832385565006  0.644056212106868  1.0000
  N   N1        1.0  0.109368067676788  0.8350650632092257  0.08998190915391223  1.0000
  N   N2        1.0  0.8906319324404832  0.33506506190984975  0.4100180908527792  1.0000
  N   N3        1.0  0.8906319321327982  0.16493493730529538  0.9100180909160845  1.0000
  N   N4        1.0  0.10936806736910311  0.6649349386046713  0.5899819092172175  1.0000
  O   O1        1.0  0.6494550690077256  0.8452602329097273  0.9798214569854874  1.0000
  O   O2        1.0  0.35054493130615555  0.34526023161035135  0.5201785431450309  1.0000
  O   O3        1.0  0.3505449308018606  0.15473976760479374  0.020178543084509372  1.0000
  O   O4        1.0  0.6494550685034308  0.6547397668199388  0.47982145692496586  1.0000
  O   O5        1.0  0.748598709598656  0.4853187267481926  0.06089757868941431  1.0000
  O   O6        1.0  0.2514012905186152  0.9853187280475686  0.4391024213172771  1.0000
  O   O7        1.0  0.2514012900212813  0.5146812716820975  0.9391024206568139  1.0000
  O   O8        1.0  0.7485987101029509  0.01468127246695248  0.5608975787499358  1.0000
  O   O9        1.0  0.9221311407317488  0.7523155397567878  0.045346411851192495  1.0000
  O   O10       1.0  0.07786885938552228  0.2523155384574117  0.454653588155499  1.0000
  O   O11       1.0  0.07786885988981723  0.24768446075773334  0.9546535882160206  1.0000
  O   O12       1.0  0.922131140424064  0.7476844599728785  0.5453464119144978  1.0000
  Br  Br1       1.0  0.53111762851559  0.5939466530275372  0.16508362688748296  1.0000
  Br  Br2       1.0  0.4688823716016812  0.09394665381239216  0.3349163731192086  1.0000
  Br  Br3       1.0  0.46888237210597616  0.4060533454027529  0.8349163731797301  1.0000
  Br  Br4       1.0  0.531117628207905  0.906053346702129  0.6650836269507883  1.0000
