data_image0
_chemical_formula_structural       H18C130N4S4Cl4I2
_chemical_formula_sum              "H18 C130 N4 S4 Cl4 I2"
_cell_length_a       10.081614184661019
_cell_length_b       10.61301368823064
_cell_length_c       17.518152050689427
_cell_angle_alpha    85.80243671294075
_cell_angle_beta     89.78954152850588
_cell_angle_gamma    81.26988784003046

_space_group_name_H-M_alt    "P 1"
_space_group_IT_number       1

loop_
  _space_group_symop_operation_xyz
  'x, y, z'

loop_
  _atom_site_type_symbol
  _atom_site_label
  _atom_site_symmetry_multiplicity
  _atom_site_fract_x
  _atom_site_fract_y
  _atom_site_fract_z
  _atom_site_occupancy
  H   H1        1.0  0.23950531124411553  0.5368592816214088  0.49599751038350376  1.0000
  H   H2        1.0  0.7604946888311289  0.4631407183630584  0.5040024899522983  1.0000
  H   H3        1.0  0.4596324642260865  0.7310133099123294  0.6251910874387472  1.0000
  H   H4        1.0  0.5403675348525032  0.2689866901471612  0.3748089123226202  1.0000
  H   H5        1.0  0.35937882866242066  0.8553150021020445  0.5686826128555462  1.0000
  H   H6        1.0  0.6406211714128239  0.14468499788242276  0.43131738748025594  1.0000
  H   H7        1.0  0.34938495696114413  0.7177257271309928  0.4708404141371135  1.0000
  H   H8        1.0  0.6506150431141003  0.2822742728534744  0.5291595861986887  1.0000
  H   H9        1.0  0.450200597904809  0.5920232321234475  0.5278599322446775  1.0000
  H   H10       1.0  0.5497994021659286  0.4079767679343919  0.4721400675187433  1.0000
  H   H11       1.0  0.12601041223423456  0.8857604609522325  0.5751068341365573  1.0000
  H   H12       1.0  0.873989587836503  0.11423953910560693  0.4248931656268635  1.0000
  H   H13       1.0  0.04091411586066544  0.7886843339491509  0.6390464654146062  1.0000
  H   H14       1.0  0.9590858842100723  0.21131566610868857  0.3609535343488146  1.0000
  H   H15       1.0  0.029218826377964826  0.6456875320468254  0.5427965421375224  1.0000
  H   H16       1.0  0.9707811736972798  0.35431246793764165  0.4572034581982798  1.0000
  H   H17       1.0  0.11155785946215721  0.7472463422379975  0.47874717316693893  1.0000
  H   H18       1.0  0.8884421396164326  0.25275365782149284  0.5212528265944283  1.0000
  C   C1        1.0  0.25591867887293446  0.61850091972176  0.6805005608081179  1.0000
  C   C2        1.0  0.7440813211978031  0.38149908033607943  0.3194994389553029  1.0000
  C   C3        1.0  0.24908540730747897  0.5186610016069986  0.6159207365270113  1.0000
  C   C4        1.0  0.7509145927632588  0.4813389984508408  0.38407926323640956  1.0000
  C   C5        1.0  0.36764618375513786  0.41040432490979684  0.6142083474386362  1.0000
  C   C6        1.0  0.6323538163201067  0.5895956750746703  0.38579165289716594  1.0000
  C   C7        1.0  0.48281761330498585  0.40519928551894824  0.6573663306407378  1.0000
  C   C8        1.0  0.5171823867657518  0.5948007145388912  0.342633669122683  1.0000
  C   C9        1.0  0.4889372363067608  0.4937074411725707  0.7178732003788114  1.0000
  C   C10       1.0  0.5110627637684838  0.5062925588118963  0.28212679995699075  1.0000
  C   C11       1.0  0.3802233279790162  0.5836927079715274  0.7326049055087299  1.0000
  C   C12       1.0  0.6197766720962281  0.41630729201293964  0.2673950948270722  1.0000
  C   C13       1.0  0.34330506208961953  0.6042552499064657  0.8105350946695409  1.0000
  C   C14       1.0  0.656694937981118  0.39574475015137367  0.18946490509387998  1.0000
  C   C15       1.0  0.197868507248423  0.6244945235848987  0.8150951492143922  1.0000
  C   C16       1.0  0.8021314918346737  0.3755054764012194  0.18490485111935634  1.0000
  C   C17       1.0  0.14387202713546487  0.6164000925026136  0.7401027141287356  1.0000
  C   C18       1.0  0.8561279729397796  0.3835999074818534  0.25989728620706637  1.0000
  C   C19       1.0  0.03265557921457834  0.5570489915001632  0.7322947574825133  1.0000
  C   C20       1.0  0.9673444208561591  0.44295100855767633  0.2677052422809076  1.0000
  C   C21       1.0  0.0262307094148546  0.46811388071851706  0.6718988007002967  1.0000
  C   C22       1.0  0.973769290655883  0.5318861193393224  0.3281011990631241  1.0000
  C   C23       1.0  0.13101595628965393  0.4430981419901489  0.6216303626941281  1.0000
  C   C24       1.0  0.8689840427889357  0.5569018580693416  0.37836963706723914  1.0000
  C   C25       1.0  0.17533973748796744  0.31350294967571485  0.6032984440182667  1.0000
  C   C26       1.0  0.8246602625872771  0.6864970503087523  0.39670155631753545  1.0000
  C   C27       1.0  0.3205572188230438  0.29356558060982924  0.5987748848725528  1.0000
  C   C28       1.0  0.6794427812522007  0.7064344193746379  0.4012251154632493  1.0000
  C   C29       1.0  0.39408129764018185  0.17434340090888992  0.6224356899179886  1.0000
  C   C30       1.0  0.6059187024305558  0.8256565991489495  0.3775643098454322  1.0000
  C   C31       1.0  0.5163526210641783  0.16913529601536773  0.6659128283085103  1.0000
  C   C32       1.0  0.48364737901106614  0.8308647039690994  0.3340871720272918  1.0000
  C   C33       1.0  0.5594871822866779  0.28333689817147656  0.6832946426128567  1.0000
  C   C34       1.0  0.44051281778405954  0.7166631018863631  0.3167053571505641  1.0000
  C   C35       1.0  0.6128532188473669  0.29486685291915726  0.7588936546194012  1.0000
  C   C36       1.0  0.38714678122337076  0.7051331471386822  0.2411063451440196  1.0000
  C   C37       1.0  0.5695270719627814  0.42428547778082326  0.7799619945750704  1.0000
  C   C38       1.0  0.4304729281124631  0.5757145222036438  0.22003800576073174  1.0000
  C   C39       1.0  0.5369296569084198  0.44721187806308427  0.856044901989324  1.0000
  C   C40       1.0  0.46307034316231804  0.5527881219947552  0.1439550977740968  1.0000
  C   C41       1.0  0.42087293804355497  0.5393913883149775  0.8717144688045878  1.0000
  C   C42       1.0  0.5791270620271828  0.4606086117428621  0.12828553095883297  1.0000
  C   C43       1.0  0.3556302303621013  0.49086114085557603  0.9394315961676701  1.0000
  C   C44       1.0  0.6443697697086365  0.5091388592022634  0.06056840359575069  1.0000
  C   C45       1.0  0.21570813573894693  0.5099025177233605  0.9436902290191115  1.0000
  C   C46       1.0  0.7842918643317908  0.490097482334479  0.05630977074430917  1.0000
  C   C47       1.0  0.13520019105351205  0.5785422286097187  0.8807595575756285  1.0000
  C   C48       1.0  0.8647998090217324  0.42145777137474844  0.1192404427601736  1.0000
  C   C49       1.0  0.01724524741458884  0.5183188381818633  0.8724264936437058  1.0000
  C   C50       1.0  0.9827547516640011  0.48168116187762705  0.12757350611766144  1.0000
  C   C51       1.0  0.9672956015273183  0.5073338276182956  0.7991565469679038  1.0000
  C   C52       1.0  0.032704398543419305  0.49266617243954386  0.2008434527955171  1.0000
  C   C53       1.0  0.9205770605100331  0.39000768862298874  0.7812443112814559  1.0000
  C   C54       1.0  0.07942293956070447  0.6099923114348508  0.21875568848196503  1.0000
  C   C55       1.0  0.9568629715400352  0.36613544501407813  0.7027380651405136  1.0000
  C   C56       1.0  0.043137028681549026  0.6338645540907142  0.2972619346210271  1.0000
  C   C57       1.0  0.9966475897638951  0.24058608024482914  0.6827300126033549  1.0000
  C   C58       1.0  0.0033524103068424305  0.7594139198130104  0.3172699871600658  1.0000
  C   C59       1.0  0.10857245595912934  0.2135466239326943  0.6316413942108586  1.0000
  C   C60       1.0  0.8914275441116083  0.7864533761251452  0.3683586055525622  1.0000
  C   C61       1.0  0.18481212315421156  0.0902357373272636  0.6572931024090157  1.0000
  C   C62       1.0  0.815187876921033  0.9097642626572034  0.34270689792678644  1.0000
  C   C63       1.0  0.3247405289883104  0.07095620222713853  0.6527462288962879  1.0000
  C   C64       1.0  0.6752594710824272  0.9290437978307009  0.347253770867133  1.0000
  C   C65       1.0  0.40520411863828404  0.002089889871785827  0.7156310808638722  1.0000
  C   C66       1.0  0.5947958814324537  0.9979101101860536  0.2843689188995487  1.0000
  C   C67       1.0  0.5238841762537145  0.06288712171645064  0.7236036984972791  1.0000
  C   C68       1.0  0.47611582381702305  0.937112878341389  0.27639630126614173  1.0000
  C   C69       1.0  0.5748375643021105  0.07469551141282048  0.7964780879086738  1.0000
  C   C70       1.0  0.4251624357686272  0.925304488645019  0.20352191185474694  1.0000
  C   C71       1.0  0.6213741119196836  0.19253027521149763  0.8143610947852163  1.0000
  C   C72       1.0  0.378625888151054  0.8074697248463418  0.18563890497820454  1.0000
  C   C73       1.0  0.5857056392723246  0.2161666120511649  0.8931507658690021  1.0000
  C   C74       1.0  0.41429436079841303  0.7838333880066747  0.1068492338944187  1.0000
  C   C75       1.0  0.5445875185898567  0.34113459932477347  0.9137349123645508  1.0000
  C   C76       1.0  0.45541248148088104  0.6588654007330661  0.08626508739887  1.0000
  C   C77       1.0  0.4321750107493554  0.3679191401998333  0.9653850863433411  1.0000
  C   C78       1.0  0.5678249893213823  0.6320808598580062  0.03461491342007984  1.0000
  C   C79       1.0  0.3652257247778393  0.26877321171340013  0.9944087650332308  1.0000
  C   C80       1.0  0.634774275297405  0.7312267882710669  0.005591235302571383  1.0000
  C   C81       1.0  0.2196773861687575  0.2884512972016728  0.9990970417078552  1.0000
  C   C82       1.0  0.7803226139064868  0.7115487027827943  0.000902958627946979  1.0000
  C   C83       1.0  0.14668447025864562  0.40662404490086573  0.973987553992713  1.0000
  C   C84       1.0  0.8533155288199441  0.5933759551586247  0.026012445768654326  1.0000
  C   C85       1.0  0.023965384588237732  0.41192128831997443  0.929766160405921  1.0000
  C   C86       1.0  0.9760346154870067  0.5880787116644928  0.07023383992988118  1.0000
  C   C87       1.0  0.9785630352285034  0.29897563955748896  0.9127807414912139  1.0000
  C   C88       1.0  0.0214369648422341  0.7010243605003507  0.08721925827220689  1.0000
  C   C89       1.0  0.9257524346043126  0.2880161329552209  0.8368756996591132  1.0000
  C   C90       1.0  0.0742475654664252  0.7119838671026185  0.16312430010430756  1.0000
  C   C91       1.0  0.968539096240665  0.15794200945168635  0.8162142047828648  1.0000
  C   C92       1.0  0.0314609038300726  0.8420579906061533  0.183785794980556  1.0000
  C   C93       1.0  0.003173944100589408  0.134681421665913  0.740553474516023  1.0000
  C   C94       1.0  0.9968260559701484  0.8653185783919265  0.25944652524739775  1.0000
  C   C95       1.0  0.1194887073845221  0.04150702981189553  0.7248834320922971  1.0000
  C   C96       1.0  0.8805112926862154  0.9584929702459442  0.2751165676711237  1.0000
  C   C97       1.0  0.19669090129569194  0.9751561357740469  0.785474726056648  1.0000
  C   C98       1.0  0.8033090987750456  0.024843864283792573  0.2145252737067728  1.0000
  C   C99       1.0  0.34234854759317424  0.9550275405948035  0.7807266912142032  1.0000
  C   C100      1.0  0.6576514524820701  0.04497245938966367  0.2192733091215989  1.0000
  C   C101      1.0  0.39572660848874375  0.9672229948978102  0.8563132424898466  1.0000
  C   C102      1.0  0.6042733917328406  0.03277700420698227  0.143686757271694  1.0000
  C   C103      1.0  0.5096683822259762  0.026166259530246583  0.8638125142831703  1.0000
  C   C104      1.0  0.4903316178447615  0.9738337405275929  0.1361874854802506  1.0000
  C   C105      1.0  0.5159770603759495  0.113852583496257  0.9233938895136771  1.0000
  C   C106      1.0  0.48402293969929494  0.88614741648821  0.07660611082212505  1.0000
  C   C107      1.0  0.40793154104029256  0.1395533853685323  0.9729893317629223  1.0000
  C   C108      1.0  0.592068459030445  0.8604466146893074  0.027010668000498377  1.0000
  C   C109      1.0  0.28935530934362214  0.07880809011145463  0.9650367981474091  1.0000
  C   C110      1.0  0.7106446907316224  0.9211919098730124  0.03496320218839318  1.0000
  C   C111      1.0  0.17277123685452137  0.17104747242031118  0.9811866709738828  1.0000
  C   C112      1.0  0.8272287632162162  0.8289525276375284  0.018813328789538154  1.0000
  C   C113      1.0  0.054192450143832366  0.1762669453492452  0.9389552359690361  1.0000
  C   C114      1.0  0.9458075499269054  0.8237330547085944  0.06104476379438461  1.0000
  C   C115      1.0  0.04817260738017988  0.08898850638097495  0.8790846419302614  1.0000
  C   C116      1.0  0.9518273926950646  0.9110114936034921  0.12091535840554067  1.0000
  C   C117      1.0  0.16036674212316357  0.9992930975845796  0.8640500792084104  1.0000
  C   C118      1.0  0.8396332579475739  0.0007069024732599674  0.13594992055501048  1.0000
  C   C119      1.0  0.28332738273449093  0.9942702460306976  0.9078792466124261  1.0000
  C   C120      1.0  0.7166726173407535  0.005729753953769723  0.09212075372337587  1.0000
  C   C121      1.0  0.36574153394097075  0.7560608783213102  0.5924482494849473  1.0000
  C   C122      1.0  0.6342584661297669  0.24393912173652932  0.40755175027847346  1.0000
  C   C123      1.0  0.3617215877822025  0.6659925230885159  0.5274917668800173  1.0000
  C   C124      1.0  0.6382784122930419  0.3340074768959512  0.4725082334557848  1.0000
  C   C125      1.0  0.12619429829876563  0.7879761059350089  0.6000836640688496  1.0000
  C   C126      1.0  0.8738057017719719  0.21202389412283068  0.39991633569457113  1.0000
  C   C127      1.0  0.11528003559037306  0.6972063090100882  0.5358567602744463  1.0000
  C   C128      1.0  0.8847199644848712  0.30279369097437897  0.46414324006135593  1.0000
  C   C129      1.0  0.230376115389112  0.2103153327944444  0.19436635100002891  1.0000
  C   C130      1.0  0.7696238846861325  0.7896846671900226  0.8056336493357732  1.0000
  N   N1        1.0  0.2513702313088166  0.7488685832164104  0.6436308760325139  1.0000
  N   N2        1.0  0.748629768761921  0.25113141684142914  0.35636912373090684  1.0000
  N   N3        1.0  0.24042822132661146  0.6004451517408633  0.5395079296152191  1.0000
  N   N4        1.0  0.7595717787486329  0.39955484824360393  0.46049207072058307  1.0000
  S   S1        1.0  0.11007712019066879  0.13799952513111824  0.18259596627215197  1.0000
  S   S2        1.0  0.8899228798845757  0.862000474853349  0.8174040340636501  1.0000
  S   S3        1.0  0.3501569513123065  0.2827985910291926  0.20627143014308805  1.0000
  S   S4        1.0  0.649843048762938  0.7172014089552745  0.7937285701927141  1.0000
  Cl  Cl1       1.0  0.28436962995062154  0.41955963335936597  0.40843226742662947  1.0000
  Cl  Cl2       1.0  0.7156303701201161  0.5804403666984735  0.5915677323367913  1.0000
  Cl  Cl3       1.0  0.19019308063161777  0.9564492083808768  0.41601922809312736  1.0000
  Cl  Cl4       1.0  0.8098069184514787  0.04355079160524124  0.5839807722406213  1.0000
  I   I1        1.0  0.24277924012743807  0.17872254028456494  0.4141136459488915  1.0000
  I   I2        1.0  0.7572207599478066  0.8212774596999022  0.5858863543869106  1.0000
