data_image0
_chemical_formula_structural       H44B2C90F32P2
_chemical_formula_sum              "H44 B2 C90 F32 P2"
_cell_length_a       11.401579671034115
_cell_length_b       11.903989373018288
_cell_length_c       15.287888713536551
_cell_angle_alpha    110.72886446080147
_cell_angle_beta     107.50357682467254
_cell_angle_gamma    90.22676562687882

_space_group_name_H-M_alt    "P 1"
_space_group_IT_number       1

loop_
  _space_group_symop_operation_xyz
  'x, y, z'

loop_
  _atom_site_type_symbol
  _atom_site_label
  _atom_site_symmetry_multiplicity
  _atom_site_fract_x
  _atom_site_fract_y
  _atom_site_fract_z
  _atom_site_occupancy
  H   H1        1.0  0.5460920578127972  0.3739995071664846  0.20579135049816175  1.0000
  H   H2        1.0  0.45390794204432805  0.626000492241483  0.7942086493187127  1.0000
  H   H3        1.0  0.5818615172806568  0.23743852672609722  0.05573258526596265  1.0000
  H   H4        1.0  0.4181384825832675  0.7625614735202223  0.9442674145472149  1.0000
  H   H5        1.0  0.46331009120211875  0.2435748839223311  0.8911384878950904  1.0000
  H   H6        1.0  0.5366899089572464  0.7564251166652689  0.1088615126570901  1.0000
  H   H7        1.0  0.31187682273879247  0.3919782107606718  0.8813428491788495  1.0000
  H   H8        1.0  0.6881231771251318  0.6080217894856476  0.11865715063432797  1.0000
  H   H9        1.0  0.273575276494343  0.52852441896063  0.030385522453916444  1.0000
  H   H10       1.0  0.7264247233695814  0.4714755812856895  0.9696144773592611  1.0000
  H   H11       1.0  0.18042165117511944  0.3598900472308092  0.15824780633009494  1.0000
  H   H12       1.0  0.8195783486888049  0.6401099530155101  0.8417521934830825  1.0000
  H   H13       1.0  0.06597216310195722  0.27062435561027093  0.23895604363373812  1.0000
  H   H14       1.0  0.9340278367619671  0.7293756446360486  0.7610439561794394  1.0000
  H   H15       1.0  0.11805333998901217  0.3545654972018037  0.42131231860806917  1.0000
  H   H16       1.0  0.8819466601635539  0.6454345025474447  0.5786876819478084  1.0000
  H   H17       1.0  0.2905412222045188  0.5202589239121272  0.5248088679873419  1.0000
  H   H18       1.0  0.7094587776594056  0.4797410763341922  0.47519113182583556  1.0000
  H   H19       1.0  0.4060563063805733  0.6093507563707743  0.4457764022748876  1.0000
  H   H20       1.0  0.5939436946571947  0.3906492442137681  0.5542235982806811  1.0000
  H   H21       1.0  0.6117065758211632  0.6353514643915548  0.24531021403178005  1.0000
  H   H22       1.0  0.3882934240427612  0.36464853585476475  0.7546897857813974  1.0000
  H   H23       1.0  0.8084505395772994  0.7552814482112532  0.2863572036052035  1.0000
  H   H24       1.0  0.19154946027982603  0.24471855119671462  0.713642796211671  1.0000
  H   H25       1.0  0.6598274190133682  0.08055347740127118  0.40869378126241385  1.0000
  H   H26       1.0  0.3401725808505561  0.9194465228450484  0.5913062185507636  1.0000
  H   H27       1.0  0.8679651432594835  0.09547535937951987  0.42008614593323146  1.0000
  H   H28       1.0  0.13203485689988145  0.9045246412080802  0.5799138546189491  1.0000
  H   H29       1.0  0.8877551844495424  0.9917853479254559  0.3099030466858406  1.0000
  H   H30       1.0  0.11224481570302361  0.00821465182379241  0.6900969538700369  1.0000
  H   H31       1.0  0.9454317082772596  0.9656987530039907  0.42048169533824464  1.0000
  H   H32       1.0  0.0545682915798657  0.034301246403977165  0.57951830447863  1.0000
  H   H33       1.0  0.7649511633950695  0.14400523847252308  0.22348768184678186  1.0000
  H   H34       1.0  0.23504883646885494  0.8559947617737963  0.7765123179663956  1.0000
  H   H35       1.0  0.6139781765764853  0.9753212801451794  0.08714172597701227  1.0000
  H   H36       1.0  0.38602182328743884  0.02467872010113982  0.9128582738361651  1.0000
  H   H37       1.0  0.39191553761696835  0.9620464125662838  0.07651270249028685  1.0000
  H   H38       1.0  0.6080844622401571  0.037953586841683984  0.9234872973265877  1.0000
  H   H39       1.0  0.3205087039258571  0.11796686014839411  0.20146193691780784  1.0000
  H   H40       1.0  0.6794912962267089  0.8820331396008543  0.7985380636380697  1.0000
  H   H41       1.0  0.4718241427442514  0.2861609533758953  0.3384281832239756  1.0000
  H   H42       1.0  0.528175857119673  0.713839046870424  0.6615718165892018  1.0000
  H   H43       1.0  0.6952363288986826  0.29741149101564635  0.3502082860833832  1.0000
  H   H44       1.0  0.3047636709652417  0.7025885092306731  0.6497917137297943  1.0000
  B   B1        1.0  0.16151571771046117  0.6906100825707576  0.21115692109578074  1.0000
  B   B2        1.0  0.8384842821466643  0.30938991683721023  0.7888430787210939  1.0000
  C   C1        1.0  0.3989999077998557  0.7201484954709895  0.27975424891013895  1.0000
  C   C2        1.0  0.6010000920572697  0.2798515039369784  0.7202457509067357  1.0000
  C   C3        1.0  0.2925287065799827  0.7747282814319675  0.28170480474447496  1.0000
  C   C4        1.0  0.7074712932771426  0.22527171797600026  0.7182951950723996  1.0000
  C   C5        1.0  0.40569104322384125  0.46009925029539417  0.12895992259849137  1.0000
  C   C6        1.0  0.5943089566332841  0.5399007491125736  0.8710400772183832  1.0000
  C   C7        1.0  0.4933899302805811  0.37796468817771883  0.1350589653719191  1.0000
  C   C8        1.0  0.5066100695765442  0.6220353112302489  0.8649410344449554  1.0000
  C   C9        1.0  0.513532511507167  0.3003065113609215  0.04963691451483143  1.0000
  C   C10       1.0  0.4864674883499584  0.6996934880470462  0.9503630853020432  1.0000
  C   C11       1.0  0.4477634904324004  0.30435504772692484  0.9580255167126427  1.0000
  C   C12       1.0  0.552236509424725  0.6956449516810428  0.041974483104231824  1.0000
  C   C13       1.0  0.36238088538609586  0.3871967608774435  0.9523481923807467  1.0000
  C   C14       1.0  0.6376191144710295  0.6128032385305243  0.04765180743612773  1.0000
  C   C15       1.0  0.3404055974582971  0.46501553362492987  0.03676749836031603  1.0000
  C   C16       1.0  0.6595944024056272  0.5349844666213897  0.9632325014528615  1.0000
  C   C17       1.0  0.298821673451024  0.4903576268646675  0.29697392303022935  1.0000
  C   C18       1.0  0.7011783264129003  0.509642373381652  0.7030260767829482  1.0000
  C   C19       1.0  0.20438452230154666  0.39417593468354967  0.23842284806378297  1.0000
  C   C20       1.0  0.7956154775623776  0.6058240655627697  0.7615771517493946  1.0000
  C   C21       1.0  0.13996719081149536  0.34524829972807686  0.2837389681365681  1.0000
  C   C22       1.0  0.860032809052429  0.6547517005182426  0.7162610316766094  1.0000
  C   C23       1.0  0.16942000692499645  0.3922018614449619  0.3863858932204305  1.0000
  C   C24       1.0  0.8305799929389278  0.6077981388013576  0.613614106592747  1.0000
  C   C25       1.0  0.26596047991597127  0.4861308838115301  0.4446468818586522  1.0000
  C   C26       1.0  0.7340395199479529  0.5138691164347893  0.5553531179545252  1.0000
  C   C27       1.0  0.3314574211645074  0.5354254453425661  0.400456984727571  1.0000
  C   C28       1.0  0.668542578692618  0.46457455406540166  0.5995430150893035  1.0000
  C   C29       1.0  0.5187798941108669  0.7876540279487054  0.3076344944027628  1.0000
  C   C30       1.0  0.48122010575305746  0.21234597229761396  0.6923655054104146  1.0000
  C   C31       1.0  0.6209636364459755  0.7326518246371945  0.28433491899609115  1.0000
  C   C32       1.0  0.3790363634179488  0.267348175609125  0.7156650808170864  1.0000
  C   C33       1.0  0.7321750522547349  0.800076973445252  0.3069959973182911  1.0000
  C   C34       1.0  0.26782494760918923  0.1999230268010674  0.6930040024948864  1.0000
  C   C35       1.0  0.7475992792755589  0.92688082284199  0.3540841555294259  1.0000
  C   C36       1.0  0.2524007205883652  0.07311917740432926  0.6459158442837515  1.0000
  C   C37       1.0  0.6479208917576884  0.9826686994174785  0.3757883923127188  1.0000
  C   C38       1.0  0.3520791081062359  0.017331300828840938  0.6242116075004586  1.0000
  C   C39       1.0  0.5326373274250044  0.9165905189833905  0.3537079958756072  1.0000
  C   C40       1.0  0.4673626727343606  0.0834094816042093  0.6462920046765731  1.0000
  C   C41       1.0  0.8681396107606477  0.9995810323571347  0.3778032638784365  1.0000
  C   C42       1.0  0.1318603890964777  0.00041896705083326134  0.6221967359384382  1.0000
  C   C43       1.0  0.307230989091909  0.9043804407155764  0.33270814933364756  1.0000
  C   C44       1.0  0.6927690107720154  0.09561955953074291  0.66729185047953  1.0000
  C   C45       1.0  0.42711340692373045  0.9748926097078857  0.37374660390090975  1.0000
  C   C46       1.0  0.5728865929333948  0.02510738970008207  0.6262533959159649  1.0000
  C   C47       1.0  0.43493693346425466  0.09879057392873287  0.4310507841408783  1.0000
  C   C48       1.0  0.5650630663928706  0.9012094254792349  0.5689492156759963  1.0000
  C   C49       1.0  0.3325107778180021  0.15480871756084186  0.4451210033242895  1.0000
  C   C50       1.0  0.6674892220391232  0.8451912818471259  0.5548789964925851  1.0000
  C   C51       1.0  0.21572496449820297  0.08749036822350348  0.4029607191539949  1.0000
  C   C52       1.0  0.7842750353657213  0.9125096320228159  0.5970392806591825  1.0000
  C   C53       1.0  0.2052329651998675  0.9651075467561101  0.34878367144270195  1.0000
  C   C54       1.0  0.7947670346572578  0.03489245265185769  0.6512163283741725  1.0000
  C   C55       1.0  0.09327512450014332  0.7452536227372593  0.12620843544856986  1.0000
  C   C56       1.0  0.9067248756592217  0.2547463778503406  0.8737915651036107  1.0000
  C   C57       1.0  0.15876402297305753  0.7669024292702735  0.06839873376243724  1.0000
  C   C58       1.0  0.8412359768908668  0.23309757097604597  0.9316012660507402  1.0000
  C   C59       1.0  0.11038693263854649  0.815045576798799  0.9960012813465476  1.0000
  C   C60       1.0  0.8896130672185788  0.1849544226091689  0.0039987184703270074  1.0000
  C   C61       1.0  0.9899213028852946  0.8447734284727078  0.978848998218226  1.0000
  C   C62       1.0  0.010078696978629717  0.15522657177361177  0.02115100159495149  1.0000
  C   C63       1.0  0.9204801312327049  0.8260230020582385  0.03438257242613466  1.0000
  C   C64       1.0  0.07951986862442052  0.1739769973497293  0.96561742739074  1.0000
  C   C65       1.0  0.9728994460870417  0.7773614591378599  0.10595116783135906  1.0000
  C   C66       1.0  0.027100553776882502  0.22263854110845946  0.8940488319818184  1.0000
  C   C67       1.0  0.07061899437732988  0.6461336867459571  0.26011884123508733  1.0000
  C   C68       1.0  0.9293810057820351  0.35386631384164297  0.7398811593170932  1.0000
  C   C69       1.0  0.08795071297315193  0.6838292113388608  0.36094393286293  1.0000
  C   C70       1.0  0.9120492871794141  0.3161707884103874  0.6390560676929474  1.0000
  C   C71       1.0  0.010044646512961355  0.6398660698315956  0.3998273491792053  1.0000
  C   C72       1.0  0.9899553533509629  0.3601339304147238  0.6001726506339722  1.0000
  C   C73       1.0  0.908834091668629  0.5540314914718256  0.33597718334459187  1.0000
  C   C74       1.0  0.09116590819529512  0.44596850877449373  0.6640228164685856  1.0000
  C   C75       1.0  0.8887470895067264  0.5119280223354342  0.23454130025374045  1.0000
  C   C76       1.0  0.1112529103571978  0.48807197791088514  0.765458699559437  1.0000
  C   C77       1.0  0.9695955745651655  0.5576745893001002  0.1993578951587234  1.0000
  C   C78       1.0  0.030404425291959726  0.44232541010786763  0.8006421046581512  1.0000
  C   C79       1.0  0.6676970291990105  0.13785991013515125  0.21902869203896558  1.0000
  C   C80       1.0  0.33230297065811476  0.8621400892728166  0.780971307777909  1.0000
  C   C81       1.0  0.5828663330213715  0.04321299953614557  0.14235158602512915  1.0000
  C   C82       1.0  0.417133666835754  0.9567869998718224  0.8576484137917455  1.0000
  C   C83       1.0  0.4581682814229592  0.035750619188429505  0.13648301688135553  1.0000
  C   C84       1.0  0.5418317184409651  0.9642493810578899  0.8635169829318219  1.0000
  C   C85       1.0  0.41817272684936313  0.12314916954429354  0.20689678602826728  1.0000
  C   C86       1.0  0.5818272730077623  0.8768508298636744  0.7931032137886074  1.0000
  C   C87       1.0  0.503182477475804  0.21741310508497824  0.2838692038593193  1.0000
  C   C88       1.0  0.4968175223881203  0.7825868951613411  0.7161307959538582  1.0000
  C   C89       1.0  0.6281481764065246  0.2243995186954726  0.2901731128973457  1.0000
  C   C90       1.0  0.37185182374604153  0.7756004810537757  0.7098268876585319  1.0000
  F   F1        1.0  0.2059686405198159  0.5738262215108011  0.15638403424810368  1.0000
  F   F2        1.0  0.7940313593373094  0.42617377789716665  0.8436159655687708  1.0000
  F   F3        1.0  0.5194689602999386  0.5491177651491108  0.3179314177792917  1.0000
  F   F4        1.0  0.4805310395571866  0.4508822342588569  0.6820685820375828  1.0000
  F   F5        1.0  0.5443217591395654  0.17229864059404598  0.479750974223863  1.0000
  F   F6        1.0  0.4556782407243589  0.8277013596522733  0.5202490255893145  1.0000
  F   F7        1.0  0.3460218636939858  0.27287551293518514  0.5014392067827682  1.0000
  F   F8        1.0  0.6539781364653792  0.7271244876524147  0.4985607937694121  1.0000
  F   F9        1.0  0.11568468447792994  0.14083807031617562  0.418100074540553  1.0000
  F   F10       1.0  0.8843153165598379  0.8591619302683668  0.5818999260150157  1.0000
  F   F11       1.0  0.09042725835417671  0.9037431597173237  0.3143721456719426  1.0000
  F   F12       1.0  0.9095727415097475  0.09625684052899564  0.6856278541412348  1.0000
  F   F13       1.0  0.27776636118511805  0.7418204952547925  0.0812607504955091  1.0000
  F   F14       1.0  0.7222336386788062  0.258179504991527  0.9187392493176684  1.0000
  F   F15       1.0  0.17923539402079974  0.8352051456882216  0.943430744886598  1.0000
  F   F16       1.0  0.8207646067147284  0.16479485371668876  0.056569254933664895  1.0000
  F   F17       1.0  0.9416982246704675  0.8939111375306512  0.9103210021479192  1.0000
  F   F18       1.0  0.058301775193456855  0.10608886271566823  0.0896789976652583  1.0000
  F   F19       1.0  0.8040773306944391  0.8567768240618511  0.019387440566678505  1.0000
  F   F20       1.0  0.19592266946492584  0.14322317652574879  0.9806125599855019  1.0000
  F   F21       1.0  0.8983111147476627  0.7650231131282503  0.15733474896653496  1.0000
  F   F22       1.0  0.10168888511626178  0.23497688711806897  0.8426652508466426  1.0000
  F   F23       1.0  0.18597767513243973  0.7659037242998807  0.4284136263913226  1.0000
  F   F24       1.0  0.8140223247246855  0.2340962751080871  0.571586373425552  1.0000
  F   F25       1.0  0.034291645089483534  0.6769508299724251  0.49883624444772084  1.0000
  F   F26       1.0  0.965708354774441  0.3230491702738944  0.5011637553654567  1.0000
  F   F27       1.0  0.8326084676183771  0.509361725804462  0.3717145587161344  1.0000
  F   F28       1.0  0.16739153224554712  0.4906382744418575  0.6282854410970432  1.0000
  F   F29       1.0  0.7921553744023856  0.42633219154523033  0.17198000131382404  1.0000
  F   F30       1.0  0.2078446254615387  0.573667808701089  0.8280199984993534  1.0000
  F   F31       1.0  0.9463225056638864  0.5114883585510352  0.09980541313420106  1.0000
  F   F32       1.0  0.05367749420003782  0.48851164169528416  0.9001945866789764  1.0000
  P   P1        1.0  0.38709298143405124  0.556842338846614  0.2437192464192625  1.0000
  P   P2        1.0  0.6129070184298732  0.44315766139970547  0.7562807533939151  1.0000
