data_image0
_chemical_formula_structural       H56C24N8I16
_chemical_formula_sum              "H56 C24 N8 I16"
_cell_length_a       18.08334927940835
_cell_length_b       8.21316646724989
_cell_length_c       9.028523810686846
_cell_angle_alpha    90.0
_cell_angle_beta     90.0
_cell_angle_gamma    90.0

_space_group_name_H-M_alt    "P 1"
_space_group_IT_number       1

loop_
  _space_group_symop_operation_xyz
  'x, y, z'

loop_
  _atom_site_type_symbol
  _atom_site_label
  _atom_site_symmetry_multiplicity
  _atom_site_fract_x
  _atom_site_fract_y
  _atom_site_fract_z
  _atom_site_occupancy
  H   H1        1.0  0.35430053697495256  0.029392281401162443  0.688121232249081  1.0000
  H   H2        1.0  0.1456994630414064  0.9706077189336791  0.18812123284091886  1.0000
  H   H3        1.0  0.6456994630577654  0.5293922821773619  0.311878767674844  1.0000
  H   H4        1.0  0.8543005369913116  0.47060771815747976  0.8118787681906069  1.0000
  H   H5        1.0  0.6456994630577654  0.9706077189336791  0.311878767674844  1.0000
  H   H6        1.0  0.8543005369913116  0.029392281401162443  0.8118787681906069  1.0000
  H   H7        1.0  0.35430053697495256  0.47060771815747976  0.688121232249081  1.0000
  H   H8        1.0  0.1456994630414064  0.5293922821773619  0.18812123284091886  1.0000
  H   H9        1.0  0.24157433739193515  0.8932610716286341  0.6635889604575587  1.0000
  H   H10       1.0  0.25842566262442385  0.10673892870620748  0.1635889610493966  1.0000
  H   H11       1.0  0.7584256626407828  0.39326107206999195  0.33641103946636625  1.0000
  H   H12       1.0  0.741574337408294  0.6067389282648497  0.8364110388745284  1.0000
  H   H13       1.0  0.7584256626407828  0.10673892870620748  0.33641103946636625  1.0000
  H   H14       1.0  0.741574337408294  0.8932610716286341  0.8364110388745284  1.0000
  H   H15       1.0  0.24157433739193515  0.6067389282648497  0.6635889604575587  1.0000
  H   H16       1.0  0.25842566262442385  0.39326107206999195  0.1635889610493966  1.0000
  H   H17       1.0  0.2922392643279687  0.891823806227151  0.4936902912881515  1.0000
  H   H18       1.0  0.20776073568839024  0.10817619410769065  0.9936902918039144  1.0000
  H   H19       1.0  0.7077607357047492  0.39182380666850875  0.5063097086357735  1.0000
  H   H20       1.0  0.7922392643443277  0.6081761936663329  0.006309709227611397  1.0000
  H   H21       1.0  0.7077607357047492  0.10817619410769065  0.5063097086357735  1.0000
  H   H22       1.0  0.7922392643443277  0.891823806227151  0.006309709227611397  1.0000
  H   H23       1.0  0.2922392643279687  0.6081761936663329  0.4936902912881515  1.0000
  H   H24       1.0  0.20776073568839024  0.39182380666850875  0.9936902918039144  1.0000
  H   H25       1.0  0.3066488577043859  0.8923696030301106  0.8979545803937182  1.0000
  H   H26       1.0  0.1933511423119731  0.10763039608717384  0.39795458098555614  1.0000
  H   H27       1.0  0.6933511417753372  0.3923696034714683  0.10204541953020674  1.0000
  H   H28       1.0  0.8066488577207449  0.6076303968633732  0.6020454189383688  1.0000
  H   H29       1.0  0.6933511417753372  0.10763039608717384  0.10204541953020674  1.0000
  H   H30       1.0  0.8066488577207449  0.8923696030301106  0.6020454189383688  1.0000
  H   H31       1.0  0.3066488577043859  0.6076303968633732  0.8979545803937182  1.0000
  H   H32       1.0  0.1933511423119731  0.3923696034714683  0.39795458098555614  1.0000
  H   H33       1.0  0.40557085176424557  0.8935979624016427  0.9001383737151316  1.0000
  H   H34       1.0  0.09442914825211346  0.1064020379331989  0.4001383731993688  1.0000
  H   H35       1.0  0.5944291482684725  0.3935979628430005  0.0998616273163941  1.0000
  H   H36       1.0  0.9055708517806046  0.6064020374918411  0.5998616267245562  1.0000
  H   H37       1.0  0.5944291482684725  0.1064020379331989  0.0998616273163941  1.0000
  H   H38       1.0  0.9055708517806046  0.8935979624016427  0.5998616267245562  1.0000
  H   H39       1.0  0.40557085176424557  0.6064020374918411  0.9001383737151316  1.0000
  H   H40       1.0  0.09442914825211346  0.3935979628430005  0.4001383731993688  1.0000
  H   H41       1.0  0.4731703263478607  0.8935513664874449  0.6679086023854934  1.0000
  H   H42       1.0  0.026829673668498307  0.10644863384739668  0.16790860186973056  1.0000
  H   H43       1.0  0.5268296736848572  0.39355136571124555  0.33209139753843153  1.0000
  H   H44       1.0  0.9731703263642195  0.6064486334060389  0.8320913980541944  1.0000
  H   H45       1.0  0.5268296736848572  0.10644863384739668  0.33209139753843153  1.0000
  H   H46       1.0  0.9731703263642195  0.8935513664874449  0.8320913980541944  1.0000
  H   H47       1.0  0.4731703263478607  0.6064486334060389  0.6679086023854934  1.0000
  H   H48       1.0  0.026829673668498307  0.39355136571124555  0.16790860186973056  1.0000
  H   H49       1.0  0.42369467744145006  0.893566066055569  0.4963095301023648  1.0000
  H   H50       1.0  0.07630532257490888  0.10643393306171535  0.9963095295105269  1.0000
  H   H51       1.0  0.5763053225912679  0.3935660664969269  0.5036904698215602  1.0000
  H   H52       1.0  0.923694677457809  0.6064339338379148  0.0036904704133980926  1.0000
  H   H53       1.0  0.5763053225912679  0.10643393306171535  0.5036904698215602  1.0000
  H   H54       1.0  0.923694677457809  0.893566066055569  0.0036904704133980926  1.0000
  H   H55       1.0  0.42369467744145006  0.6064339338379148  0.4963095301023648  1.0000
  H   H56       1.0  0.07630532257490888  0.3935660664969269  0.9963095295105269  1.0000
  C   C1        1.0  0.2899241749408677  0.8428786811523143  0.6067043466747294  1.0000
  C   C2        1.0  0.2100758250754913  0.1571213179649701  0.10670434726656723  1.0000
  C   C3        1.0  0.7100758250918503  0.34287868159367213  0.39329565324919563  1.0000
  C   C4        1.0  0.7899241749572267  0.6571213187411695  0.8932956526573577  1.0000
  C   C5        1.0  0.7100758250918503  0.1571213179649701  0.39329565324919563  1.0000
  C   C6        1.0  0.7899241749572267  0.8428786811523143  0.8932956526573577  1.0000
  C   C7        1.0  0.2899241749408677  0.6571213187411695  0.6067043466747294  1.0000
  C   C8        1.0  0.2100758250754913  0.34287868159367213  0.10670434726656723  1.0000
  C   C9        1.0  0.3565120360386541  0.843476864571534  0.8452437652063354  1.0000
  C   C10       1.0  0.14348796397770483  0.15652313576330762  0.3452437646905725  1.0000
  C   C11       1.0  0.6434879639940638  0.34347686379533465  0.15475623471758962  1.0000
  C   C12       1.0  0.8565120360550131  0.6565231353219498  0.6547562352333525  1.0000
  C   C13       1.0  0.6434879639940638  0.15652313576330762  0.15475623471758962  1.0000
  C   C14       1.0  0.8565120360550131  0.843476864571534  0.6547562352333525  1.0000
  C   C15       1.0  0.3565120360386541  0.6565231353219498  0.8452437652063354  1.0000
  C   C16       1.0  0.14348796397770483  0.34347686379533465  0.3452437646905725  1.0000
  C   C17       1.0  0.4252810246140209  0.8436751388919795  0.6089552063308722  1.0000
  C   C18       1.0  0.07471897540233806  0.15632486022530487  0.10895520581510929  1.0000
  C   C19       1.0  0.574718975418697  0.3436751393333374  0.39104479359305283  1.0000
  C   C20       1.0  0.9252810246303799  0.6563248610015042  0.8910447941088157  1.0000
  C   C21       1.0  0.574718975418697  0.15632486022530487  0.39104479359305283  1.0000
  C   C22       1.0  0.9252810246303799  0.8436751388919795  0.8910447941088157  1.0000
  C   C23       1.0  0.4252810246140209  0.6563248610015042  0.6089552063308722  1.0000
  C   C24       1.0  0.07471897540233806  0.3436751393333374  0.10895520581510929  1.0000
  N   N1        1.0  0.35719756391341106  0.9016181407655736  0.6873843310524397  1.0000
  N   N2        1.0  0.1428024361029479  0.09838185835171084  0.18738433053667675  1.0000
  N   N3        1.0  0.6428024361193069  0.4016181412069314  0.3126156688714854  1.0000
  N   N4        1.0  0.8571975639297701  0.5983818591279102  0.8126156693872483  1.0000
  N   N5        1.0  0.6428024361193069  0.09838185835171084  0.3126156688714854  1.0000
  N   N6        1.0  0.8571975639297701  0.9016181407655736  0.8126156693872483  1.0000
  N   N7        1.0  0.35719756391341106  0.5983818591279102  0.6873843310524397  1.0000
  N   N8        1.0  0.1428024361029479  0.4016181412069314  0.18738433053667675  1.0000
  I   I1        1.0  0.574219536965098  0.7499999999467418  0.9189384415400718  1.0000
  I   I2        1.0  0.925780463083979  0.2500000003880997  0.41893844102430894  1.0000
  I   I3        1.0  0.42578046306762  0.2500000003880997  0.08106155949145392  1.0000
  I   I4        1.0  0.07421953694873897  0.7499999999467418  0.581061558899616  1.0000
  I   I5        1.0  0.6342787761701227  0.7499999999467418  0.6187682479595745  1.0000
  I   I6        1.0  0.8657212238789541  0.2500000003880997  0.11876824744381159  1.0000
  I   I7        1.0  0.36572122386259515  0.2500000003880997  0.38123175196435055  1.0000
  I   I8        1.0  0.13427877615376382  0.7499999999467418  0.8812317524801134  1.0000
  I   I9        1.0  0.5072203173360426  0.7499999999467418  0.22356403242917802  1.0000
  I   I10       1.0  0.9927796827130344  0.2500000003880997  0.7235640329449409  1.0000
  I   I11       1.0  0.4927796826966754  0.2500000003880997  0.7764359674947469  1.0000
  I   I12       1.0  0.007220317319683597  0.7499999999467418  0.27643596697898404  1.0000
  I   I13       1.0  0.2524719640956565  0.2500000003880997  0.7101643318933915  1.0000
  I   I14       1.0  0.24752803592070252  0.7499999999467418  0.21016433137762855  1.0000
  I   I15       1.0  0.7475280359370615  0.7499999999467418  0.2898356680305335  1.0000
  I   I16       1.0  0.7524719641120154  0.2500000003880997  0.7898356685462964  1.0000
