data_image0
_chemical_formula_structural       H44C52N4O12Cl4
_chemical_formula_sum              "H44 C52 N4 O12 Cl4"
_cell_length_a       9.497285132179828
_cell_length_b       18.39251292124232
_cell_length_c       7.121688243124533
_cell_angle_alpha    93.65751349414101
_cell_angle_beta     104.67228216894917
_cell_angle_gamma    100.73599827122143

_space_group_name_H-M_alt    "P 1"
_space_group_IT_number       1

loop_
  _space_group_symop_operation_xyz
  'x, y, z'

loop_
  _atom_site_type_symbol
  _atom_site_label
  _atom_site_symmetry_multiplicity
  _atom_site_fract_x
  _atom_site_fract_y
  _atom_site_fract_z
  _atom_site_occupancy
  H   H1        1.0  0.17559460933994378  0.08121896181607012  0.40837058071593785  1.0000
  H   H2        1.0  0.8244053896446025  0.918781038094037  0.591629419211919  1.0000
  H   H3        1.0  0.3870244711695421  0.08989083404182649  0.12171439519643376  1.0000
  H   H4        1.0  0.6129755290610895  0.9101091664219784  0.8782856047099888  1.0000
  H   H5        1.0  0.07543595777270759  0.3147500746301028  0.34311687816862707  1.0000
  H   H6        1.0  0.924564042457924  0.685249925833702  0.6568831217377955  1.0000
  H   H7        1.0  0.5817406657060175  0.3366783580990105  0.24756431456956673  1.0000
  H   H8        1.0  0.41825933432839096  0.6633216418116198  0.7524356853415111  1.0000
  H   H9        1.0  0.9440844679497681  0.06804076142012401  0.19962960527502316  1.0000
  H   H10       1.0  0.05591553208464059  0.9319592384905064  0.8003703946360545  1.0000
  H   H11       1.0  0.8137607944167566  0.98750156812784  0.08068550806610264  1.0000
  H   H12       1.0  0.18623920561765173  0.012498431782790274  0.9193144918449752  1.0000
  H   H13       1.0  0.8444450450110488  0.8682136792359761  0.14180704780329978  1.0000
  H   H14       1.0  0.15555495502335956  0.1317863206746541  0.858192952107778  1.0000
  H   H15       1.0  0.15184315636950443  0.8664751821635314  0.4157389948160901  1.0000
  H   H16       1.0  0.8481568436649042  0.13352481774709896  0.5842610050949876  1.0000
  H   H17       1.0  0.2177266358904248  0.7503852381500586  0.463109478887064  1.0000
  H   H18       1.0  0.7822733641439837  0.24961476176057174  0.5368905210240138  1.0000
  H   H19       1.0  0.15513629829667736  0.6133166911292792  0.4389531657343426  1.0000
  H   H20       1.0  0.8448637017377312  0.38668330878135104  0.5610468341767352  1.0000
  H   H21       1.0  0.8970777343750382  0.5436289743693783  0.26575511830092824  1.0000
  H   H22       1.0  0.10292226565937042  0.4563710255412521  0.7342448816101494  1.0000
  H   H23       1.0  0.7040103158626455  0.6141439143034835  0.1215321642631384  1.0000
  H   H24       1.0  0.29598968417176297  0.38585608560714674  0.8784678356479393  1.0000
  H   H25       1.0  0.7652881539420372  0.7510073288079003  0.14574092989983373  1.0000
  H   H26       1.0  0.23471184609237142  0.2489926711027301  0.8542590700112441  1.0000
  H   H27       1.0  0.6093594835183643  0.09495012940110632  0.3523258405319234  1.0000
  H   H28       1.0  0.39064051671226724  0.9050498710626984  0.6476741593744991  1.0000
  H   H29       1.0  0.695201290412023  0.021159760686808735  0.43741346125559794  1.0000
  H   H30       1.0  0.30479870962238553  0.9788402392238217  0.5625865386554798  1.0000
  H   H31       1.0  0.5786214644041255  0.8949952578926225  0.3304814493197437  1.0000
  H   H32       1.0  0.42137853563028305  0.10500474201800786  0.6695185505913341  1.0000
  H   H33       1.0  0.28282770094511306  0.881567684499457  0.014658721768989264  1.0000
  H   H34       1.0  0.7171722990892954  0.1184323154111734  0.9853412781420886  1.0000
  H   H35       1.0  0.5574252666813911  0.7775245901738136  0.3160745286658073  1.0000
  H   H36       1.0  0.4425747335492405  0.22247541028999124  0.6839254712406153  1.0000
  H   H37       1.0  0.5157819280809901  0.6404177168383514  0.28679209197267547  1.0000
  H   H38       1.0  0.4842180719534184  0.359582283072279  0.7132079079384023  1.0000
  H   H39       1.0  0.2911786470300902  0.563216506167167  0.04682964512245019  1.0000
  H   H40       1.0  0.7088213530043184  0.43678349374346337  0.9531703547886277  1.0000
  H   H41       1.0  0.1063035997871916  0.6244742526632113  0.8387262022308617  1.0000
  H   H42       1.0  0.8936964002472169  0.375525747247419  0.16127379768021602  1.0000
  H   H43       1.0  0.14570141908472756  0.76319499081344  0.8725722323831707  1.0000
  H   H44       1.0  0.8542985809496808  0.2368050090971903  0.12742776752790705  1.0000
  C   C1        1.0  0.15423397231486183  0.18230351938825287  0.32532262519629457  1.0000
  C   C2        1.0  0.8457660277195466  0.8176964805223775  0.6746773747147834  1.0000
  C   C3        1.0  0.2454647433792939  0.25617222853493815  0.3105554829413458  1.0000
  C   C4        1.0  0.7545352568513377  0.7438277719288666  0.6894445169650769  1.0000
  C   C5        1.0  0.18582230648666623  0.3195875945423515  0.32079205844802394  1.0000
  C   C6        1.0  0.8141776935477422  0.6804124053682787  0.6792079414630539  1.0000
  C   C7        1.0  0.2669774014459373  0.3889967189770242  0.30315021302183565  1.0000
  C   C8        1.0  0.7330225985884712  0.6110032809336062  0.6968497868892422  1.0000
  C   C9        1.0  0.41115306755995573  0.3952166240078438  0.27935298302065853  1.0000
  C   C10       1.0  0.5888469324744529  0.6047833759027865  0.7206470168904193  1.0000
  C   C11       1.0  0.4716996848034234  0.3319323302510477  0.27123693616596967  1.0000
  C   C12       1.0  0.5283003152309851  0.6680676696595828  0.7287630637451081  1.0000
  C   C13       1.0  0.38856094745815295  0.26238538809340317  0.2830979838073247  1.0000
  C   C14       1.0  0.6114390515263933  0.7376146118167038  0.7169020161205322  1.0000
  C   C15       1.0  0.4497973899431261  0.19450672842398153  0.25439450806944636  1.0000
  C   C16       1.0  0.5502026092376434  0.8054932720393001  0.7456054918537554  1.0000
  C   C17       1.0  0.005973404093194494  0.9702716842702763  0.2720047439374036  1.0000
  C   C18       1.0  0.994026595941214  0.029728315640354077  0.7279952559736742  1.0000
  C   C19       1.0  0.9556946865797127  0.8891236648174924  0.23930663444707265  1.0000
  C   C20       1.0  0.044305313454695905  0.11087633509313805  0.7606933654640051  1.0000
  C   C21       1.0  0.0400448705166905  0.8422644839041207  0.3233391727963024  1.0000
  C   C22       1.0  0.9599551286640791  0.15773551655916102  0.6766608271268993  1.0000
  C   C23       1.0  0.997135616702243  0.7611682610000898  0.30437291469540645  1.0000
  C   C24       1.0  0.002864383332165425  0.2388317389105404  0.6956270852156713  1.0000
  C   C25       1.0  0.10487851757279737  0.7206762917110202  0.3878082708490048  1.0000
  C   C26       1.0  0.8951214816079721  0.2793237087522614  0.612191729074197  1.0000
  C   C27       1.0  0.06933593950216707  0.6431508471459152  0.3736974132116958  1.0000
  C   C28       1.0  0.9306640605322414  0.3568491527647151  0.626302586699382  1.0000
  C   C29       1.0  0.9254424818752075  0.6042631858878447  0.2765978234989126  1.0000
  C   C30       1.0  0.0745575174230958  0.39573681408909395  0.7234021778903312  1.0000
  C   C31       1.0  0.8170658295411394  0.6438985281771169  0.19535322854161757  1.0000
  C   C32       1.0  0.18293417049326918  0.3561014717335135  0.8046467713694603  1.0000
  C   C33       1.0  0.8518875380064692  0.721323772574805  0.20859167039193566  1.0000
  C   C34       1.0  0.1481124620279392  0.27867622733582537  0.7914083295191421  1.0000
  C   C35       1.0  0.4904446799498546  0.9912962783172263  0.22980169660929936  1.0000
  C   C36       1.0  0.509555320084554  0.008703721593403917  0.7701983033017785  1.0000
  C   C37       1.0  0.48581667366235176  0.9114452495274208  0.23021669606458878  1.0000
  C   C38       1.0  0.5141833263720568  0.08855475038320973  0.7697833038464891  1.0000
  C   C39       1.0  0.37169655643122484  0.8605866313941292  0.11093046165076116  1.0000
  C   C40       1.0  0.6283034436031836  0.13941336851650107  0.8890695382603165  1.0000
  C   C41       1.0  0.3542280113982077  0.7799667130424132  0.0955294589494028  1.0000
  C   C42       1.0  0.6457719888324239  0.22003328742139155  0.9044705409570198  1.0000
  C   C43       1.0  0.4586094437057325  0.7443650232751887  0.21104654665785383  1.0000
  C   C44       1.0  0.5413905563286759  0.25563497663544155  0.7889534532532239  1.0000
  C   C45       1.0  0.43528263923123384  0.6670659170054963  0.1938595950396781  1.0000
  C   C46       1.0  0.5647173608031747  0.332934082905134  0.8061404048713997  1.0000
  C   C47       1.0  0.30873318546207135  0.623702912924016  0.05963616156624667  1.0000
  C   C48       1.0  0.6912668145723372  0.37629708698661435  0.9403638383448312  1.0000
  C   C49       1.0  0.20523082817809382  0.6582477251720161  0.9426739836162419  1.0000
  C   C50       1.0  0.7947691718563148  0.34175227473861425  0.05732601629483593  1.0000
  C   C51       1.0  0.22727242324613087  0.7357100666066267  0.9607589481275425  1.0000
  C   C52       1.0  0.7727275767882776  0.26428993330400363  0.0392410517835352  1.0000
  N   N1        1.0  0.914009492563339  0.010585024420560269  0.17621278438954618  1.0000
  N   N2        1.0  0.08599050747106932  0.9894149754900701  0.8237872155215316  1.0000
  N   N3        1.0  0.6081040941685663  0.03862342509912324  0.3480425488668846  1.0000
  N   N4        1.0  0.39189590586584216  0.9613765748115071  0.6519574510441932  1.0000
  O   O1        1.0  0.018782350989011716  0.1652655618315118  0.244379551390433  1.0000
  O   O2        1.0  0.9812176490453968  0.8347344380791185  0.7556204485206448  1.0000
  O   O3        1.0  0.23120347336689007  0.13908761235442865  0.43000035232368267  1.0000
  O   O4        1.0  0.7687965268637416  0.8609123881093761  0.5699996475827399  1.0000
  O   O5        1.0  0.3603291935308296  0.14499223714154738  0.11322061065146298  1.0000
  O   O6        1.0  0.639670806503579  0.8550077627690829  0.8867793892596147  1.0000
  O   O7        1.0  0.5732588274950716  0.1880279337848834  0.354025295324968  1.0000
  O   O8        1.0  0.42674117253933685  0.8119720661257469  0.6459747045861098  1.0000
  O   O9        1.0  0.1319827975719147  0.002238230949159659  0.38834937176350703  1.0000
  O   O10       1.0  0.8680172014126317  0.9977617689609475  0.61165062816435  1.0000
  O   O11       1.0  0.38396763051508453  0.014885432961450713  0.11927451423808823  1.0000
  O   O12       1.0  0.616032369519324  0.9851145669491796  0.8807254856729896  1.0000
  Cl  Cl1       1.0  0.5130333827018547  0.47934740836855383  0.25039717439769943  1.0000
  Cl  Cl2       1.0  0.48696661733255386  0.5206525915420765  0.7496028255133783  1.0000
  Cl  Cl3       1.0  0.18705239733653292  0.46556862286211864  0.303602656195812  1.0000
  Cl  Cl4       1.0  0.8129476026978756  0.5344313770485117  0.6963973437152657  1.0000
