data_image0
_chemical_formula_structural       H16C64N16F32I8
_chemical_formula_sum              "H16 C64 N16 F32 I8"
_cell_length_a       29.03538087517778
_cell_length_b       5.626343237578133
_cell_length_c       11.33784076973847
_cell_angle_alpha    90.0
_cell_angle_beta     95.18574181274606
_cell_angle_gamma    90.0

_space_group_name_H-M_alt    "P 1"
_space_group_IT_number       1

loop_
  _space_group_symop_operation_xyz
  'x, y, z'

loop_
  _atom_site_type_symbol
  _atom_site_label
  _atom_site_symmetry_multiplicity
  _atom_site_fract_x
  _atom_site_fract_y
  _atom_site_fract_z
  _atom_site_occupancy
  H   H1        1.0  0.3142171427528606  0.9065015205498601  0.3999454663702471  1.0000
  H   H2        1.0  0.6857828570781372  0.9065015205498601  0.10005453400134376  1.0000
  H   H3        1.0  0.8142171428283852  0.4065015203346344  0.3999454663577649  1.0000
  H   H4        1.0  0.18578285700261268  0.4065015203346344  0.10005453401382589  1.0000
  H   H5        1.0  0.685782857069309  0.0934984798805913  0.6000545335077496  1.0000
  H   H6        1.0  0.3142171427770521  0.0934984798805913  0.8999454667622684  1.0000
  H   H7        1.0  0.18578285699378436  0.5934984800958171  0.6000545335202317  1.0000
  H   H8        1.0  0.8142171428525767  0.5934984800958171  0.8999454667497863  1.0000
  H   H9        1.0  0.26350103452127444  0.5765199727480997  0.30951992058066236  1.0000
  H   H10       1.0  0.7364989653097235  0.5765199727480997  0.19048007979092837  1.0000
  H   H11       1.0  0.7635010345967991  0.07651997253287399  0.30951992056818023  1.0000
  H   H12       1.0  0.23649896557844172  0.07651997253287399  0.1904800797988768  1.0000
  H   H13       1.0  0.7364989653008951  0.42348002768235177  0.6904800792973342  1.0000
  H   H14       1.0  0.263501034545466  0.42348002768235177  0.8095199209726838  1.0000
  H   H15       1.0  0.23649896556961342  0.9234800278975775  0.6904800793052827  1.0000
  H   H16       1.0  0.7635010346209906  0.9234800278975775  0.8095199209602015  1.0000
  C   C1        1.0  0.38555989610478464  0.5673443060992548  0.6671139929717438  1.0000
  C   C2        1.0  0.6144401040527995  0.5673443060992548  0.8328860064081247  1.0000
  C   C3        1.0  0.8855598958360664  0.06734430588402904  0.6671139929637954  1.0000
  C   C4        1.0  0.11444010397727497  0.06734430588402904  0.8328860064206071  1.0000
  C   C5        1.0  0.6144401040616279  0.43265569433119666  0.33288600690171904  1.0000
  C   C6        1.0  0.38555989611361297  0.43265569433119666  0.167113993465338  1.0000
  C   C7        1.0  0.11444010398610324  0.9326556945464224  0.33288600691420117  1.0000
  C   C8        1.0  0.8855598958448947  0.9326556945464224  0.16711399345738961  1.0000
  C   C9        1.0  0.42425077322860705  0.595862134327073  0.6041962955714859  1.0000
  C   C10       1.0  0.5757492266177541  0.595862134327073  0.8958037046985319  1.0000
  C   C11       1.0  0.9242507733041316  0.09586213588920064  0.6041962955590038  1.0000
  C   C12       1.0  0.0757492265422295  0.09586213588920064  0.8958037047110141  1.0000
  C   C13       1.0  0.5757492265935626  0.4041378643260251  0.39580370430651063  1.0000
  C   C14       1.0  0.4242507732374353  0.4041378643260251  0.10419629606508013  1.0000
  C   C15       1.0  0.07574922651803798  0.9041378645412509  0.39580370431899276  1.0000
  C   C16       1.0  0.9242507733129599  0.9041378645412509  0.104196296052598  1.0000
  C   C17       1.0  0.4568973439217593  0.771773017863221  0.6341212865784661  1.0000
  C   C18       1.0  0.5431026559246018  0.771773017863221  0.8658787136915517  1.0000
  C   C19       1.0  0.9568973439972839  0.27177301764799516  0.634121286565984  1.0000
  C   C20       1.0  0.0431026561933201  0.27177301764799516  0.8658787136995002  1.0000
  C   C21       1.0  0.5431026559004103  0.22822698078987722  0.3658787132995305  1.0000
  C   C22       1.0  0.45689734389756775  0.22822698078987722  0.13412128618644484  1.0000
  C   C23       1.0  0.04310265616912858  0.728226981005103  0.36587871330747884  1.0000
  C   C24       1.0  0.9568973439730923  0.728226981005103  0.13412128617396268  1.0000
  C   C25       1.0  0.45150012232626563  0.9305827708893474  0.7276607400268057  1.0000
  C   C26       1.0  0.5484998775200954  0.9305827708893474  0.7723392602432121  1.0000
  C   C27       1.0  0.9515001224017904  0.4305827706741216  0.7276607400143236  1.0000
  C   C28       1.0  0.048499877444570856  0.4305827706741216  0.7723392602556943  1.0000
  C   C29       1.0  0.5484998775289238  0.0694172295411041  0.2723392607368063  1.0000
  C   C30       1.0  0.45150012230207415  0.0694172295411041  0.2276607396347844  1.0000
  C   C31       1.0  0.04849987742037934  0.5694172297563298  0.27233925986367297  1.0000
  C   C32       1.0  0.9515001223775987  0.5694172297563298  0.2276607396223023  1.0000
  C   C33       1.0  0.41208556593955936  0.902918214457664  0.789457852777322  1.0000
  C   C34       1.0  0.587914433873782  0.902918214457664  0.7105421466070804  1.0000
  C   C35       1.0  0.912085566015084  0.4029182142424383  0.7894578527648398  1.0000
  C   C36       1.0  0.08791443379825731  0.4029182142424383  0.7105421466195627  1.0000
  C   C37       1.0  0.5879144338826103  0.09708178419543405  0.21054214710067462  1.0000
  C   C38       1.0  0.41208556594838763  0.09708178419543405  0.2894578532709161  1.0000
  C   C39       1.0  0.0879144338070856  0.5970817844106597  0.21054214711315677  1.0000
  C   C40       1.0  0.9120855660239123  0.5970817844106597  0.289457853258434  1.0000
  C   C41       1.0  0.3802401047702566  0.7238079971375808  0.760096319292008  1.0000
  C   C42       1.0  0.6197598953873277  0.7238079971375808  0.7399036800878607  1.0000
  C   C43       1.0  0.8802401048457812  0.2238079969223551  0.760096319279526  1.0000
  C   C44       1.0  0.11975989531180298  0.2238079969223551  0.7399036801003428  1.0000
  C   C45       1.0  0.619759895396156  0.27619200329287064  0.2399036805814548  1.0000
  C   C46       1.0  0.3802401047790849  0.27619200329287064  0.26009631978560227  1.0000
  C   C47       1.0  0.11975989532063126  0.7761920035080964  0.23990368059393694  1.0000
  C   C48       1.0  0.8802401048546096  0.7761920035080964  0.2600963197731201  1.0000
  C   C49       1.0  0.28530512535359903  0.836587986414086  0.4444514973572182  1.0000
  C   C50       1.0  0.714694874444379  0.836587986414086  0.05554850212875706  1.0000
  C   C51       1.0  0.7853051254291238  0.3365879861988604  0.444451497344736  1.0000
  C   C52       1.0  0.21469487436885437  0.3365879861988604  0.05554850214123921  1.0000
  C   C53       1.0  0.7146948744685704  0.16341201401636532  0.5555485025207784  1.0000
  C   C54       1.0  0.2853051253777906  0.16341201401636532  0.9444514977492394  1.0000
  C   C55       1.0  0.21469487439304588  0.663412014231591  0.5555485025332605  1.0000
  C   C56       1.0  0.7853051254533151  0.663412014231591  0.9444514977367574  1.0000
  C   C57       1.0  0.2572764127824916  0.6543376922707473  0.39484991567831157  1.0000
  C   C58       1.0  0.7427235873597294  0.6543376922707473  0.10515008380312994  1.0000
  C   C59       1.0  0.7572764125137733  0.15433769205552156  0.3948499156703632  1.0000
  C   C60       1.0  0.24272358728420473  0.15433769205552156  0.10515008381561207  1.0000
  C   C61       1.0  0.7427235873839209  0.3456623081597041  0.6051500841951513  1.0000
  C   C62       1.0  0.2572764128066831  0.3456623081597041  0.8948499160703329  1.0000
  C   C63       1.0  0.24272358730839624  0.8456623065975766  0.6051500842076334  1.0000
  C   C64       1.0  0.7572764125379648  0.8456623065975766  0.8948499160623845  1.0000
  N   N1        1.0  0.47830928692267416  0.1402770852529311  0.7462306902365277  1.0000
  N   N2        1.0  0.5216907132679298  0.1402770852529311  0.7537693100289565  1.0000
  N   N3        1.0  0.978309286653956  0.6402770854681569  0.7462306902285792  1.0000
  N   N4        1.0  0.02169071319240518  0.6402770854681569  0.7537693100414387  1.0000
  N   N5        1.0  0.5216907132437383  0.8597229151775204  0.25376930963693517  1.0000
  N   N6        1.0  0.4783092868984827  0.8597229151775204  0.24623068984450633  1.0000
  N   N7        1.0  0.021690713168213662  0.35972291496229464  0.25376930964941735  1.0000
  N   N8        1.0  0.9783092866297645  0.35972291496229464  0.2462306898365579  1.0000
  N   N9        1.0  0.27788595124055976  0.9316040949994053  0.5494484982437566  1.0000
  N   N10       1.0  0.722114048950044  0.9316040949994053  0.9505515020217276  1.0000
  N   N11       1.0  0.7778859513160843  0.43160409478417955  0.5494484982312744  1.0000
  N   N12       1.0  0.22211404887451955  0.43160409478417955  0.9505515020342096  1.0000
  N   N13       1.0  0.7221140489258526  0.0683959036536928  0.4505515016297062  1.0000
  N   N14       1.0  0.2778859512163682  0.0683959036536928  0.0494484978517353  1.0000
  N   N15       1.0  0.22211404885032804  0.5683959038689185  0.4505515016421884  1.0000
  N   N16       1.0  0.7778859512918929  0.5683959038689185  0.049448497839253154  1.0000
  F   F1        1.0  0.4309079010698103  0.45127582566273194  0.5122498640413979  1.0000
  F   F2        1.0  0.5690920991207936  0.45127582566273194  0.9877501362240861  1.0000
  F   F3        1.0  0.9309079011453348  0.9512758258779577  0.5122498640289158  1.0000
  F   F4        1.0  0.06909209904526907  0.9512758258779577  0.9877501362365683  1.0000
  F   F5        1.0  0.5690920990966022  0.5487241729903661  0.4877501358320649  1.0000
  F   F6        1.0  0.43090790104561877  0.5487241729903661  0.012249863649376663  1.0000
  F   F7        1.0  0.06909209902107756  0.04872417277514045  0.48775013584454696  1.0000
  F   F8        1.0  0.9309079011211434  0.04872417277514045  0.01224986363689453  1.0000
  F   F9        1.0  0.49287785444926757  0.7958791227119507  0.5677525262322726  1.0000
  F   F10       1.0  0.5071221457413364  0.7958791227119507  0.9322474740332116  1.0000
  F   F11       1.0  0.992877854524792  0.29587912249672493  0.5677525262197904  1.0000
  F   F12       1.0  0.007122145665811831  0.29587912249672493  0.9322474740456935  1.0000
  F   F13       1.0  0.507122145717145  0.20412087771850082  0.43224747364119026  1.0000
  F   F14       1.0  0.49287785442507603  0.20412087771850082  0.06775252584025128  1.0000
  F   F15       1.0  0.007122145641620324  0.7041208779337266  0.43224747365367244  1.0000
  F   F16       1.0  0.9928778545006006  0.7041208779337266  0.06775252582776914  1.0000
  F   F17       1.0  0.4051502531289371  0.053282028369289816  0.8793432575251868  1.0000
  F   F18       1.0  0.594849746717424  0.053282028369289816  0.620656742744831  1.0000
  F   F19       1.0  0.9051502532044617  0.5532820285845156  0.8793432575127047  1.0000
  F   F20       1.0  0.09484974664189942  0.5532820285845156  0.6206567427573132  1.0000
  F   F21       1.0  0.5948497466932325  0.9467179720611616  0.12065674235280971  1.0000
  F   F22       1.0  0.40515025310474556  0.9467179720611616  0.3793432571331655  1.0000
  F   F23       1.0  0.09484974696195078  0.4467179718459359  0.12065674236075813  1.0000
  F   F24       1.0  0.9051502531802702  0.4467179718459359  0.37934325712068345  1.0000
  F   F25       1.0  0.3426127583997491  0.7053271729842435  0.8226073371422048  1.0000
  F   F26       1.0  0.6573872414466122  0.7053271729842435  0.6773926631278131  1.0000
  F   F27       1.0  0.8426127584752737  0.20532717276901777  0.8226073371297228  1.0000
  F   F28       1.0  0.15738724137108742  0.20532717276901777  0.6773926631402951  1.0000
  F   F29       1.0  0.6573872414224206  0.29467282744620793  0.1773926627357918  1.0000
  F   F30       1.0  0.3426127583755575  0.29467282744620793  0.3226073367501835  1.0000
  F   F31       1.0  0.15738724134689594  0.7946728276614335  0.17739266274827392  1.0000
  F   F32       1.0  0.8426127584510822  0.7946728276614335  0.32260733673770137  1.0000
  I   I1        1.0  0.3372101520000398  0.2958401575792389  0.6227307384473247  1.0000
  I   I2        1.0  0.6627898481905642  0.2958401575792389  0.8772692618181595  1.0000
  I   I3        1.0  0.8372101517313215  0.7958401577944646  0.6227307384393763  1.0000
  I   I4        1.0  0.1627898481150396  0.7958401577944646  0.8772692618306415  1.0000
  I   I5        1.0  0.6627898481663727  0.7041598410738592  0.3772692614261381  1.0000
  I   I6        1.0  0.33721015197584825  0.7041598410738592  0.12273073805530342  1.0000
  I   I7        1.0  0.16278984809084807  0.20415984263598677  0.3772692614386203  1.0000
  I   I8        1.0  0.8372101517071301  0.20415984263598677  0.12273073804735503  1.0000
