data_image0
_chemical_formula_structural       H32C80N8F12I12
_chemical_formula_sum              "H32 C80 N8 F12 I12"
_cell_length_a       6.660486266315435
_cell_length_b       33.90028531271212
_cell_length_c       9.116212860137242
_cell_angle_alpha    90.0
_cell_angle_beta     102.74297360858283
_cell_angle_gamma    90.0

_space_group_name_H-M_alt    "P 1"
_space_group_IT_number       1

loop_
  _space_group_symop_operation_xyz
  'x, y, z'

loop_
  _atom_site_type_symbol
  _atom_site_label
  _atom_site_symmetry_multiplicity
  _atom_site_fract_x
  _atom_site_fract_y
  _atom_site_fract_z
  _atom_site_occupancy
  H   H1        1.0  0.25491759391112295  0.6088419221138628  0.46775398675047175  1.0000
  H   H2        1.0  0.7450824062133192  0.10884192200637287  0.03224601306579065  1.0000
  H   H3        1.0  0.7450824050312336  0.3911580778061343  0.5322460133553759  1.0000
  H   H4        1.0  0.2549175942306889  0.8911580779136242  0.967753987040919  1.0000
  H   H5        1.0  0.48351892982239353  0.5688957016762372  0.34388379069469904  1.0000
  H   H6        1.0  0.5164810703020486  0.06889570186373004  0.15611620912156338  1.0000
  H   H7        1.0  0.5164810706216145  0.43110429824375995  0.6561162094120107  1.0000
  H   H8        1.0  0.48351893014195946  0.9311042983512499  0.8438837909851462  1.0000
  H   H9        1.0  0.9952057427270511  0.6066497635725855  0.6979394155993253  1.0000
  H   H10       1.0  0.004794258036522979  0.1066497637600783  0.8020605847978315  1.0000
  H   H11       1.0  0.004794257716957018  0.3933502363474117  0.30206058450738427  1.0000
  H   H12       1.0  0.9952057424074852  0.8933502364549015  0.1979394153088781  1.0000
  H   H13       1.0  0.7427852292675405  0.6439634855171517  0.80831330616334  1.0000
  H   H14       1.0  0.25721477149603345  0.1439634854096617  0.6916866942338168  1.0000
  H   H15       1.0  0.2572147711764675  0.35603651440284545  0.1916866939433696  1.0000
  H   H16       1.0  0.7427852289479746  0.8560365145103354  0.3083133058728928  1.0000
  H   H17       1.0  0.10414593391262998  0.45287074602416555  0.9996756596899398  1.0000
  H   H18       1.0  0.895854066850944  0.9528707461316555  0.500324340707217  1.0000
  H   H19       1.0  0.8958540665313782  0.5471292538958316  0.00032434041676986965  1.0000
  H   H20       1.0  0.104145933593064  0.04712925378834164  0.4996756593994925  1.0000
  H   H21       1.0  0.34008147586441234  0.41289941222858006  0.8822026043574404  1.0000
  H   H22       1.0  0.6599185245607757  0.9128994120410873  0.6177973949150692  1.0000
  H   H23       1.0  0.6599185245795959  0.5871005879863999  0.11779739574926924  1.0000
  H   H24       1.0  0.3400814758832324  0.08710058787890988  0.38220260519164034  1.0000
  H   H25       1.0  0.8544518989257266  0.45326441350740043  0.18838845691443273  1.0000
  H   H26       1.0  0.14554810119871553  0.9532644136148904  0.31161154290182963  1.0000
  H   H27       1.0  0.14554810117989544  0.5467355864125967  0.8116115420676296  1.0000
  H   H28       1.0  0.8544518992452926  0.04673558630510675  0.68838845720488  1.0000
  H   H29       1.0  0.6413169399965494  0.49324777906013  0.32527811322419564  1.0000
  H   H30       1.0  0.3586830601278927  0.99324777916762  0.17472188659206672  1.0000
  H   H31       1.0  0.35868306044745873  0.506752220859867  0.674721886882514  1.0000
  H   H32       1.0  0.6413169403161153  0.006752220752377118  0.8252781135146429  1.0000
  C   C1        1.0  0.14734415887935415  0.2849904801944887  0.6904054983171122  1.0000
  C   C2        1.0  0.8526558403825683  0.7849904803019786  0.8095945020791828  1.0000
  C   C3        1.0  0.8526558400630022  0.7150095197255083  0.3095945017887356  1.0000
  C   C4        1.0  0.1473441585597882  0.21500951991300124  0.19040549802666493  1.0000
  C   C5        1.0  0.07769532967993535  0.31904123461593137  0.7498061730367989  1.0000
  C   C6        1.0  0.922304669243601  0.8190412347234214  0.7501938262348489  1.0000
  C   C7        1.0  0.9223046707640727  0.6809587653040657  0.25019382706991067  1.0000
  C   C8        1.0  0.07769532969875544  0.1809587651965758  0.24980617387099888  1.0000
  C   C9        1.0  0.9220349214463932  0.31856218053570184  0.8297146268780904  1.0000
  C   C10       1.0  0.07796507897879475  0.8185621806431918  0.6702853723944193  1.0000
  C   C11       1.0  0.07796507865922875  0.6814378193842953  0.17028537210397204  1.0000
  C   C12       1.0  0.9220349214652134  0.18143781927680536  0.3297146277122903  1.0000
  C   C13       1.0  0.834718311894261  0.2820312549527359  0.8491939850096986  1.0000
  C   C14       1.0  0.165281688869313  0.7820312550602259  0.6508060153874583  1.0000
  C   C15       1.0  0.165281688549747  0.7179687449672613  0.15080601509701105  1.0000
  C   C16       1.0  0.834718311574695  0.21796874485977127  0.34919398471925134  1.0000
  C   C17       1.0  0.8960242832569327  0.24693680518555725  0.7924058130504849  1.0000
  C   C18       1.0  0.10397571750664118  0.7469368052930472  0.7075941873466719  1.0000
  C   C19       1.0  0.10397571718707523  0.75306319473444  0.20759418705622468  1.0000
  C   C20       1.0  0.896024282937367  0.2530631946269499  0.29240581276003774  1.0000
  C   C21       1.0  0.054001931034947735  0.24938058756779383  0.7144794446039309  1.0000
  C   C22       1.0  0.9459980682269745  0.7493805876752838  0.785520555792364  1.0000
  C   C23       1.0  0.9459980679074086  0.7506194123522033  0.2855205555019168  1.0000
  C   C24       1.0  0.0540019307153818  0.25061941224471335  0.21447944431348367  1.0000
  C   C25       1.0  0.41930299822897255  0.6067671935577104  0.517554165910137  1.0000
  C   C26       1.0  0.5806970010329499  0.10676719345022039  0.9824458344861579  1.0000
  C   C27       1.0  0.5806970022150355  0.39323280636228675  0.4824458341965725  1.0000
  C   C28       1.0  0.41930299790940667  0.8932328064697768  0.017554165619689886  1.0000
  C   C29       1.0  0.5468261480045585  0.584587760757537  0.4478527348243009  1.0000
  C   C30       1.0  0.45317385211988365  0.0845877606500471  0.052147264991961526  1.0000
  C   C31       1.0  0.4531738524394496  0.41541223916246006  0.5521472652824088  1.0000
  C   C32       1.0  0.5468261483241245  0.91541223926995  0.947852735114748  1.0000
  C   C33       1.0  0.7592974151438835  0.5835418235427636  0.5129447592220489  1.0000
  C   C34       1.0  0.2407025852813046  0.08354182343527376  0.9870552400504607  1.0000
  C   C35       1.0  0.24070258496173863  0.4164581766722162  0.4870552397600136  1.0000
  C   C36       1.0  0.7592974151627037  0.9164581764847233  0.012944760056248885  1.0000
  C   C37       1.0  0.8318970856528134  0.605439286444695  0.6453438234745176  1.0000
  C   C38       1.0  0.168102913270723  0.10543928633720505  0.85465617579713  1.0000
  C   C39       1.0  0.16810291479119469  0.39456071377028484  0.3546561766321919  1.0000
  C   C40       1.0  0.8318970853332475  0.8945607135827921  0.14534382318407046  1.0000
  C   C41       1.0  0.6906947388382856  0.6264144105016409  0.7067190442134014  1.0000
  C   C42       1.0  0.3093052604236367  0.12641441039415102  0.7932809561828934  1.0000
  C   C43       1.0  0.3093052616057224  0.3735855894183562  0.29328095589330816  1.0000
  C   C44       1.0  0.6906947385187197  0.8735855895258461  0.20671904392295423  1.0000
  C   C45       1.0  0.8924946530719177  0.5612935426494705  0.4445651791544194  1.0000
  C   C46       1.0  0.10750534705252436  0.06129354283696335  0.05543482066184294  1.0000
  C   C47       1.0  0.1075053473720903  0.4387064572705266  0.5554348209522901  1.0000
  C   C48       1.0  0.8924946533914838  0.9387064573780165  0.9445651794448667  1.0000
  C   C49       1.0  0.0015730286065155996  0.5414756014786901  0.3806537569262379  1.0000
  C   C50       1.0  0.9984269700162749  0.041475601371200176  0.1193462428891626  1.0000
  C   C51       1.0  0.9984269703358409  0.458524398441307  0.6193462431796097  1.0000
  C   C52       1.0  0.001573028926081561  0.9585243985487969  0.8806537572166852  1.0000
  C   C53       1.0  0.12054516661220421  0.5196609847821547  0.31025794148714714  1.0000
  C   C54       1.0  0.8794548335122379  0.019660984674664882  0.18974205832911525  1.0000
  C   C55       1.0  0.8794548338318039  0.4803390151378423  0.6897420586195624  1.0000
  C   C56       1.0  0.12054516693177011  0.9803390152453322  0.8102579417775942  1.0000
  C   C57       1.0  0.227685598582014  0.4996471691537187  0.24537302452344112  1.0000
  C   C58       1.0  0.7723144015424281  0.9996471692612086  0.25462697529282124  1.0000
  C   C59       1.0  0.7723144018619942  0.5003528307662785  0.7546269755832685  1.0000
  C   C60       1.0  0.22768559890158  0.00035283095377119944  0.7453730248138885  1.0000
  C   C61       1.0  0.3537178104335604  0.47682918922037776  0.17264335499797703  1.0000
  C   C62       1.0  0.6462821896908817  0.976829189032885  0.3273566448182854  1.0000
  C   C63       1.0  0.646282188508796  0.5231708109946022  0.8273566451078707  1.0000
  C   C64       1.0  0.3537178107531263  0.023170810887112203  0.6726433552884242  1.0000
  C   C65       1.0  0.2695498069152349  0.45376949627711916  0.04515265609400566  1.0000
  C   C66       1.0  0.7304501932092072  0.9537694960896262  0.45484734372225677  1.0000
  C   C67       1.0  0.7304501920271216  0.5462305039378608  0.954847344011842  1.0000
  C   C68       1.0  0.26954980689641483  0.046230503830370785  0.5451526552598057  1.0000
  C   C69       1.0  0.40161979601837017  0.4317646307392981  0.9787285729391996  1.0000
  C   C70       1.0  0.5983802047452039  0.9317646305518053  0.5212714274579573  1.0000
  C   C71       1.0  0.5983802044256379  0.5682353691806991  0.021271427167510043  1.0000
  C   C72       1.0  0.40161979569880424  0.06823536936819183  0.47872857264875235  1.0000
  C   C73       1.0  0.6872927131090405  0.4537781534313966  0.1500153635318707  1.0000
  C   C74       1.0  0.3127072870154017  0.9537781535388865  0.3499846362843917  1.0000
  C   C75       1.0  0.3127072873349676  0.5462218464886005  0.849984636574839  1.0000
  C   C76       1.0  0.6872927134286065  0.04622184667609338  0.650015363822318  1.0000
  C   C77       1.0  0.568989349876937  0.4762883698782725  0.2263995210740034  1.0000
  C   C78       1.0  0.4310106502475052  0.9762883699857624  0.27360047874225896  1.0000
  C   C79       1.0  0.4310106505670712  0.5237116300417246  0.7736004790327062  1.0000
  C   C80       1.0  0.5689893501965029  0.02371162993423465  0.7263995213644506  1.0000
  N   N1        1.0  0.487967223280525  0.6269779237530423  0.6453610926727924  1.0000
  N   N2        1.0  0.5120327774830492  0.12697792364555235  0.8546389077243646  1.0000
  N   N3        1.0  0.5120327771634832  0.3730220761669548  0.3546389074339173  1.0000
  N   N4        1.0  0.487967222960959  0.8730220762744447  0.1453610923823451  1.0000
  N   N5        1.0  0.6070436680240193  0.43194226523247276  0.028410241894276916  1.0000
  N   N6        1.0  0.3929563305987712  0.9319422650449799  0.4715897579211235  1.0000
  N   N7        1.0  0.39295633091833715  0.5680577346875244  0.9715897582115707  1.0000
  N   N8        1.0  0.6070436683435853  0.06805773487501716  0.5284102421847242  1.0000
  F   F1        1.0  0.11906476711737134  0.215717440208616  0.6590622266835616  1.0000
  F   F2        1.0  0.8809352336462027  0.715717440316106  0.8409377737135953  1.0000
  F   F3        1.0  0.8809352333266368  0.784282559711381  0.34093777342314807  1.0000
  F   F4        1.0  0.11906476679780537  0.2842825596038912  0.15906222639311432  1.0000
  F   F5        1.0  0.6837819246622716  0.28066322074381406  0.9274728824958416  1.0000
  F   F6        1.0  0.31621807576291644  0.7806632205563212  0.5725271167766681  1.0000
  F   F7        1.0  0.3162180757817365  0.7193367794711658  0.0725271176108681  1.0000
  F   F8        1.0  0.6837819246810916  0.21933677936367588  0.42747288333004146  1.0000
  F   F9        1.0  0.1642747402909669  0.3542766908659731  0.727567908520803  1.0000
  F   F10       1.0  0.8357252601342211  0.8542766906784802  0.7724320907517067  1.0000
  F   F11       1.0  0.8357252601530413  0.6457233093490068  0.27243209158590664  1.0000
  F   F12       1.0  0.1642747403097869  0.14572330924151683  0.22756790935500293  1.0000
  I   I1        1.0  0.37459805695889714  0.2874434678089858  0.5649740456680454  1.0000
  I   I2        1.0  0.6254019434662909  0.7874434679164757  0.9350259536044642  1.0000
  I   I3        1.0  0.6254019434851109  0.7125565321110113  0.43502595443866415  1.0000
  I   I4        1.0  0.37459805697771714  0.21255653229850416  0.06497404650224538  1.0000
  I   I5        1.0  0.7445767186387164  0.1932839965669242  0.8151341067460907  1.0000
  I   I6        1.0  0.2554232806232059  0.6932839963794314  0.6848658936502043  1.0000
  I   I7        1.0  0.2554232803036399  0.8067160036480557  0.18486589335975703  1.0000
  I   I8        1.0  0.7445767198208023  0.3067160035405658  0.31513410645650536  1.0000
  I   I9        1.0  0.8104308444359852  0.3701865619784074  0.9140360781344696  1.0000
  I   I10       1.0  0.18956915598920285  0.8701865617909146  0.5859639211380402  1.0000
  I   I11       1.0  0.18956915566963684  0.6298134379415897  0.08596392084759294  1.0000
  I   I12       1.0  0.8104308444548053  0.12981343812908253  0.41403607896866945  1.0000
