data_image0
_chemical_formula_structural       H88C76N12O8F12S4
_chemical_formula_sum              "H88 C76 N12 O8 F12 S4"
_cell_length_a       16.958912326870745
_cell_length_b       7.260289486222426
_cell_length_c       16.803983914204238
_cell_angle_alpha    90.0
_cell_angle_beta     114.80944225125712
_cell_angle_gamma    90.0

_space_group_name_H-M_alt    "P 1"
_space_group_IT_number       1

loop_
  _space_group_symop_operation_xyz
  'x, y, z'

loop_
  _atom_site_type_symbol
  _atom_site_label
  _atom_site_symmetry_multiplicity
  _atom_site_fract_x
  _atom_site_fract_y
  _atom_site_fract_z
  _atom_site_occupancy
  H   H1        1.0  0.3011112243859684  0.8792931675953868  0.20682870129404723  1.0000
  H   H2        1.0  0.6988887758674159  0.37929316802391144  0.29317129834244243  1.0000
  H   H3        1.0  0.6988887754898198  0.1207068329249195  0.7931712984171989  1.0000
  H   H4        1.0  0.30111122400837237  0.6207068324963948  0.7068287013688036  1.0000
  H   H5        1.0  0.33618513622232826  0.5558678462695613  0.3544917104438256  1.0000
  H   H6        1.0  0.6638148640198054  0.05586784532073044  0.1455082897829075  1.0000
  H   H7        1.0  0.6638148636422094  0.44413215425074487  0.6455082898576641  1.0000
  H   H8        1.0  0.3361851365054998  0.9441321538222203  0.8544917102136963  1.0000
  H   H9        1.0  0.40827925400394566  0.4222522209090438  0.5052095682351285  1.0000
  H   H10       1.0  0.5917207461437637  0.9222522204805192  0.9947904318362317  1.0000
  H   H11       1.0  0.5917207458718428  0.5777477796112624  0.4947904314761176  1.0000
  H   H12       1.0  0.4082792537207741  0.07774778003978709  0.005209568465257851  1.0000
  H   H13       1.0  0.4329397923621441  0.08698783308826477  0.5271090073391278  1.0000
  H   H14       1.0  0.5670602071360482  0.5869878326597402  0.9728909924468749  1.0000
  H   H15       1.0  0.5670602075136442  0.9130121674320415  0.47289099237211835  1.0000
  H   H16       1.0  0.4329397927284895  0.4130121664832106  0.027109007854614644  1.0000
  H   H17       1.0  0.3835419010983783  0.8709213044464938  0.4002372777234068  1.0000
  H   H18       1.0  0.6164580991437554  0.37092130487501856  0.09976272250332634  1.0000
  H   H19       1.0  0.616458099426927  0.12907869469645683  0.5997627222731969  1.0000
  H   H20       1.0  0.38354190072078226  0.6290786942679323  0.9002372777981633  1.0000
  H   H21       1.0  0.17006701727265616  0.4188403115014358  0.03277535606535333  1.0000
  H   H22       1.0  0.8299329829694776  0.9188403110729112  0.4672246441613797  1.0000
  H   H23       1.0  0.8299329832526491  0.5811596890188705  0.9672246439312503  1.0000
  H   H24       1.0  0.1700670168950601  0.08115968944739513  0.5327753561401097  1.0000
  H   H25       1.0  0.2733145658481242  0.40473347041825886  0.03098717724374958  1.0000
  H   H26       1.0  0.7266854343940096  0.9047334699897343  0.46901282298298347  1.0000
  H   H27       1.0  0.7266854340276641  0.5952665301020474  0.9690128224674965  1.0000
  H   H28       1.0  0.2733145661200451  0.09526652915321651  0.5309871776038636  1.0000
  H   H29       1.0  0.05624939488083697  0.25726175981611243  0.6618548831535696  1.0000
  H   H30       1.0  0.9437506052668723  0.7572617593875878  0.8381451169177907  1.0000
  H   H31       1.0  0.9437506056332178  0.7427382407041938  0.33814511743327774  1.0000
  H   H32       1.0  0.05624939460891603  0.24273823975536296  0.16185488279345542  1.0000
  H   H33       1.0  0.08757899324856278  0.9950651435744516  0.7640545518926999  1.0000
  H   H34       1.0  0.9124210068991465  0.4950651440029763  0.7359454481786603  1.0000
  H   H35       1.0  0.9124210072767425  0.004934855568499072  0.23594544810390378  1.0000
  H   H36       1.0  0.08757899296539122  0.5049348565173299  0.2640545521228293  1.0000
  H   H37       1.0  0.9880305406348027  0.545226331196834  0.6039919167915512  1.0000
  H   H38       1.0  0.011969459512906478  0.04522633162535863  0.8960080832798091  1.0000
  H   H39       1.0  0.011969459890502559  0.45477366794611673  0.39600808320505265  1.0000
  H   H40       1.0  0.9880305403628817  0.9547736688949477  0.10399191643143706  1.0000
  H   H41       1.0  0.0920778505074802  0.49606465924458903  0.6025374808593401  1.0000
  H   H42       1.0  0.907922149640229  0.99606466019342  0.89746251921202  1.0000
  H   H43       1.0  0.9079221493683082  0.5039353398983617  0.3974625188519059  1.0000
  H   H44       1.0  0.09207785022430864  0.003935340326886337  0.10253748108946954  1.0000
  H   H45       1.0  0.16361970582614951  0.7772033760785955  0.8514003492034647  1.0000
  H   H46       1.0  0.8363802943215597  0.27720337650712  0.6485996508678954  1.0000
  H   H47       1.0  0.8363802940496387  0.22279662306435535  0.14859965050778132  1.0000
  H   H48       1.0  0.16361970554297797  0.7227966226358308  0.3514003494335942  1.0000
  H   H49       1.0  0.24709602532669941  0.6742817954146274  0.9440926818543208  1.0000
  H   H50       1.0  0.7529039748210097  0.17428179584315204  0.5559073182170393  1.0000
  H   H51       1.0  0.7529039745490888  0.32571820510567884  0.055907317856925286  1.0000
  H   H52       1.0  0.24709602505477848  0.8257182046771543  0.44409268149420683  1.0000
  H   H53       1.0  0.14275023682838528  0.7012890945549847  0.9409386088545723  1.0000
  H   H54       1.0  0.8572497626698068  0.20128909498350933  0.5590613909314305  1.0000
  H   H55       1.0  0.8572497630361523  0.2987109059653216  0.05906139144691731  1.0000
  H   H56       1.0  0.1427502372059814  0.7987109055367969  0.4409386087798158  1.0000
  H   H57       1.0  0.29628708860346575  0.5478540583744078  0.18046477113557663  1.0000
  H   H58       1.0  0.7037129116499187  0.04785405742557688  0.31953522850091304  1.0000
  H   H59       1.0  0.7037129112723226  0.4521459421458985  0.8195352285756695  1.0000
  H   H60       1.0  0.2962870888753867  0.9521459417173739  0.6804647714956906  1.0000
  H   H61       1.0  0.4652865660676438  0.6029138009313113  0.31854123504223436  1.0000
  H   H62       1.0  0.5347134341744899  0.10291380135983594  0.18145876518449874  1.0000
  H   H63       1.0  0.5347134338081444  0.39708619821163943  0.6814587646690118  1.0000
  H   H64       1.0  0.4652865663395647  0.8970861991604704  0.8185412354023484  1.0000
  H   H65       1.0  0.46644321156912405  0.8358205415246293  0.2857998425565051  1.0000
  H   H66       1.0  0.5335567886730097  0.33582054195315386  0.21420015767022796  1.0000
  H   H67       1.0  0.5335567882954135  0.1641794576183215  0.7142001577449844  1.0000
  H   H68       1.0  0.46644321120277854  0.6641794585671524  0.7857998420410182  1.0000
  H   H69       1.0  0.5391010071253123  0.6734202911988699  0.2739012196947352  1.0000
  H   H70       1.0  0.46089899311682153  0.1734202916273946  0.22609878053199792  1.0000
  H   H71       1.0  0.4608989927392254  0.32657970794408075  0.7260987806067544  1.0000
  H   H72       1.0  0.5391010067589668  0.8265797088929118  0.7739012191792483  1.0000
  H   H73       1.0  0.41119519665273685  0.5007567903317373  0.1633606805619115  1.0000
  H   H74       1.0  0.5888048029398798  0.0007567893829063872  0.33663931937946395  1.0000
  H   H75       1.0  0.5888048032230514  0.499243210188569  0.8366393191493346  1.0000
  H   H76       1.0  0.41119519692465784  0.9992432097600443  0.6633606809220256  1.0000
  H   H77       1.0  0.3655405996805899  0.7301358107083059  0.04227903197483264  1.0000
  H   H78       1.0  0.6344594005615438  0.2301358097594749  0.45772096825190045  1.0000
  H   H79       1.0  0.6344594001839479  0.26986418981200044  0.9577209683266571  1.0000
  H   H80       1.0  0.3655405993142445  0.7698641893834758  0.5422790314593456  1.0000
  H   H81       1.0  0.4793631579194426  0.7499089410046151  0.10855974717497169  1.0000
  H   H82       1.0  0.5206368416731741  0.24990894005578415  0.39144025276640376  1.0000
  H   H83       1.0  0.5206368419563456  0.2500910595156912  0.8914402525362743  1.0000
  H   H84       1.0  0.47936315819136355  0.7500910590871666  0.6085597475350857  1.0000
  H   H85       1.0  0.40540554593956374  0.9117357982159675  0.1192151583578171  1.0000
  H   H86       1.0  0.5945944536530531  0.41173579726713655  0.3807848415835584  1.0000
  H   H87       1.0  0.594594453924974  0.08826420230433878  0.8807848419436726  1.0000
  H   H88       1.0  0.4054055462227352  0.5882642018758142  0.6192151581276877  1.0000
  C   C1        1.0  0.26977190077399277  0.1606784085143931  0.16430092883908592  1.0000
  C   C2        1.0  0.730228099468141  0.6606784080858684  0.33569907138764715  1.0000
  C   C3        1.0  0.7302280991017955  0.8393215920059132  0.8356990708721602  1.0000
  C   C4        1.0  0.26977190039639665  0.33932159105708226  0.6643009289138424  1.0000
  C   C5        1.0  0.32054219724305766  0.28803240889614495  0.29280105894646175  1.0000
  C   C6        1.0  0.6794578029990761  0.7880324098449759  0.20719894128027133  1.0000
  C   C7        1.0  0.67945780262148  0.7119675902468058  0.7071989413550279  1.0000
  C   C8        1.0  0.32054219687671215  0.2119675906753304  0.7928010584309748  1.0000
  C   C9        1.0  0.3470169069142768  0.40804449541879334  0.3644148538270348  1.0000
  C   C10       1.0  0.6529830933391076  0.9080444949902687  0.1355851458094549  1.0000
  C   C11       1.0  0.6529830936110286  0.591955505101513  0.635585146169569  1.0000
  C   C12       1.0  0.3470169065366807  0.09195550553003759  0.8644148539017913  1.0000
  C   C13       1.0  0.38680199199477766  0.33202933775224236  0.4482268301730283  1.0000
  C   C14       1.0  0.6131980082473562  0.8320293373237178  0.0517731700537048  1.0000
  C   C15       1.0  0.6131980078810106  0.6679706627680639  0.5517731695382179  1.0000
  C   C16       1.0  0.38680199161718154  0.16797066319658854  0.9482268302477848  1.0000
  C   C17       1.0  0.4000207202641526  0.14090129903790727  0.4607325315419874  1.0000
  C   C18       1.0  0.5999792793397147  0.6409012986093826  0.03926746780914469  1.0000
  C   C19       1.0  0.5999792796116357  0.8590987014823991  0.5392674681692587  1.0000
  C   C20       1.0  0.4000207205360735  0.35909870191092363  0.9607325319021015  1.0000
  C   C21       1.0  0.3728405025171182  0.01863789319376107  0.3900468841004654  1.0000
  C   C22       1.0  0.6271594977362662  0.5186378927652364  0.10995311553602433  1.0000
  C   C23       1.0  0.6271594980081872  0.9813621073265452  0.6099531158961384  1.0000
  C   C24       1.0  0.3728405021395221  0.48136210637771426  0.8900468841752218  1.0000
  C   C25       1.0  0.3324306205738376  0.09495004177287712  0.3063250062825073  1.0000
  C   C26       1.0  0.6675693790300298  0.5949500413443526  0.19367499306862476  1.0000
  C   C27       1.0  0.6675693793019507  0.9050499587474291  0.6936749934287388  1.0000
  C   C28       1.0  0.33243062084575853  0.40504995779859826  0.8063250066426214  1.0000
  C   C29       1.0  0.20968423833548422  0.33700575502438596  0.00837761887764698  1.0000
  C   C30       1.0  0.7903157612571325  0.8370057545958614  0.4916223810637286  1.0000
  C   C31       1.0  0.7903157615290535  0.6629942454959203  0.9916223814238425  1.0000
  C   C32       1.0  0.2096842386186558  0.16299424454708938  0.5083776186475176  1.0000
  C   C33       1.0  0.1675353145888877  0.3222712130749215  0.9101162517530073  1.0000
  C   C34       1.0  0.8324646855588215  0.8222712126463969  0.589883748318353  1.0000
  C   C35       1.0  0.8324646852869005  0.6777287874453848  0.0898837479582389  1.0000
  C   C36       1.0  0.16753531430571617  0.17772878787390936  0.41011625198313656  1.0000
  C   C37       1.0  0.15274446779537254  0.4822714241139462  0.859213369885802  1.0000
  C   C38       1.0  0.8472555323523366  0.9822714236854216  0.6407866301855583  1.0000
  C   C39       1.0  0.8472555327186821  0.5177285750290045  0.14078663070104525  1.0000
  C   C40       1.0  0.1527444675234516  0.017728575457529174  0.3592133695256878  1.0000
  C   C41       1.0  0.11176757171939408  0.4580885784666506  0.7678243029825467  1.0000
  C   C42       1.0  0.8882324284283151  0.9580885780381259  0.7321756970888136  1.0000
  C   C43       1.0  0.8882324281563942  0.5419114220536557  0.23217569672869953  1.0000
  C   C44       1.0  0.11176757144747315  0.04191142110482478  0.2678243026224325  1.0000
  C   C45       1.0  0.08799087622915712  0.2819173359249844  0.7320398977486052  1.0000
  C   C46       1.0  0.9120091239185522  0.7819173368738153  0.7679601023227551  1.0000
  C   C47       1.0  0.9120091242961482  0.7180826632179663  0.2679601022479986  1.0000
  C   C48       1.0  0.08799087594598556  0.21808266364649098  0.2320398979787345  1.0000
  C   C49       1.0  0.1059240578989588  0.13420215982420264  0.7896376100276848  1.0000
  C   C50       1.0  0.8940759422487504  0.6342021607730336  0.7103623900436754  1.0000
  C   C51       1.0  0.8940759419655788  0.8657978393187481  0.21036239027380474  1.0000
  C   C52       1.0  0.10592405827655489  0.3657978397472727  0.2896376099529283  1.0000
  C   C53       1.0  0.055785545883831715  0.5913186324246349  0.6258385266580435  1.0000
  C   C54       1.0  0.9442144542638775  0.09131863147580399  0.8741614734133166  1.0000
  C   C55       1.0  0.9442144539919566  0.4086813680956714  0.3741614730532025  1.0000
  C   C56       1.0  0.05578554625017719  0.9086813676671467  0.12583852717353056  1.0000
  C   C57       1.0  0.05541033900234281  0.7769563804176919  0.5851553644587788  1.0000
  C   C58       1.0  0.9445896611453665  0.27695638084621654  0.9148446356125814  1.0000
  C   C59       1.0  0.9445896608621948  0.22304361872525882  0.41484463584271075  1.0000
  C   C60       1.0  0.055410338730421865  0.7230436196740898  0.0851553640986647  1.0000
  C   C61       1.0  0.1775190035393945  0.6685270152396375  0.9003174212928949  1.0000
  C   C62       1.0  0.8224809966083148  0.1685270156681622  0.5996825787784653  1.0000
  C   C63       1.0  0.8224809963363938  0.33147298528066876  0.09968257841835126  1.0000
  C   C64       1.0  0.17751900325622294  0.8314729848521442  0.40031742152302424  1.0000
  C   C65       1.0  0.47305089449297316  0.691815481948969  0.2694856393159822  1.0000
  C   C66       1.0  0.5269491057491605  0.1918154810001381  0.23051436091075095  1.0000
  C   C67       1.0  0.5269491053715646  0.3081845185713373  0.7305143609855075  1.0000
  C   C68       1.0  0.4730508941266277  0.8081845181428127  0.7694856388004951  1.0000
  C   C69       1.0  0.40489006695716745  0.6470847614155412  0.17748318806306887  1.0000
  C   C70       1.0  0.5951099326354492  0.14708476184406574  0.3225168118783066  1.0000
  C   C71       1.0  0.5951099329186208  0.3529152391047652  0.8225168116481772  1.0000
  C   C72       1.0  0.40489006722908844  0.8529152386762405  0.677483188423183  1.0000
  C   C73       1.0  0.414666412553573  0.7660938769115082  0.1077963160414852  1.0000
  C   C74       1.0  0.5853335870390437  0.2660938773400328  0.3922036838998903  1.0000
  C   C75       1.0  0.5853335873222153  0.23390612223144255  0.892203683669761  1.0000
  C   C76       1.0  0.4146664128254939  0.7339061231802735  0.6077963164015993  1.0000
  N   N1        1.0  0.28151667659624496  0.3252249782162008  0.20323724398303317  1.0000
  N   N2        1.0  0.7184833236571394  0.8252249791650317  0.2967627556534565  1.0000
  N   N3        1.0  0.7184833232795433  0.6747750209267499  0.7967627557282131  1.0000
  N   N4        1.0  0.28151667621864884  0.1747750213552746  0.7032372440577896  1.0000
  N   N5        1.0  0.29829891375007533  0.01795502510573121  0.22338333362219157  1.0000
  N   N6        1.0  0.7017010858425413  0.5179550246772066  0.27661666631918397  1.0000
  N   N7        1.0  0.7017010861257129  0.9820449754145751  0.7766166660890546  1.0000
  N   N8        1.0  0.29829891402199626  0.4820449758430997  0.7233833339823056  1.0000
  N   N9        1.0  0.14455178340112101  0.1521254740731647  0.87692068712054  1.0000
  N   N10       1.0  0.8554482167465881  0.6521254736446401  0.62307931295082  1.0000
  N   N11       1.0  0.8554482171241843  0.8478745264471416  0.12307931287606362  1.0000
  N   N12       1.0  0.14455178311794947  0.34787452687566617  0.3769206873506695  1.0000
  O   O1        1.0  0.09697493648514653  0.6146235392497809  0.7182174747872841  1.0000
  O   O2        1.0  0.9030250630130456  0.11462353967830544  0.7817825249987184  1.0000
  O   O3        1.0  0.9030250633906417  0.3853764612705255  0.2817825249239619  1.0000
  O   O4        1.0  0.096974936851492  0.8853764608420008  0.2182174753027712  1.0000
  O   O5        1.0  0.3186790566177918  0.6724930871234988  0.1726501943701798  1.0000
  O   O6        1.0  0.6813209436243419  0.17249308617466788  0.32734980585655327  1.0000
  O   O7        1.0  0.6813209438962629  0.3275069133968075  0.8273498062166673  1.0000
  O   O8        1.0  0.31867905625144627  0.8275069129682829  0.6726501938546928  1.0000
  F   F1        1.0  0.13664986415167144  0.8437410066946648  0.6072491135953583  1.0000
  F   F2        1.0  0.8633501359960378  0.3437410071231894  0.8927508864760019  1.0000
  F   F3        1.0  0.8633501357241168  0.1562589938256415  0.3927508861158878  1.0000
  F   F4        1.0  0.13664986451801686  0.6562589933971168  0.10724911411084524  1.0000
  F   F5        1.0  0.010656784871846224  0.9073859523785626  0.607453400976395  1.0000
  F   F6        1.0  0.9893432152758631  0.4073859514297316  0.8925465990949651  1.0000
  F   F7        1.0  0.9893432150039422  0.09261404814174379  0.3925465987348511  1.0000
  F   F8        1.0  0.010656784588674669  0.5926140477132192  0.10745340120652443  1.0000
  F   F9        1.0  0.016372091501049266  0.7603690638611644  0.49563544962451217  1.0000
  F   F10       1.0  0.9836279087410844  0.26036906291233347  0.0043645506022209485  1.0000
  F   F11       1.0  0.9836279090130053  0.2396309366591419  0.5043645509623349  1.0000
  F   F12       1.0  0.016372091134703802  0.7396309362306173  0.9956354491090252  1.0000
  S   S1        1.0  0.22340416341843997  0.1060380748537572  0.05299871621880719  1.0000
  S   S2        1.0  0.7765958361854274  0.6060380758025882  0.4470012831323249  1.0000
  S   S3        1.0  0.7765958364573484  0.8939619242891935  0.9470012834924391  1.0000
  S   S4        1.0  0.2234041636903609  0.3939619247177182  0.5529987165789212  1.0000
