data_image0
_chemical_formula_structural       H86C80N16F16I6
_chemical_formula_sum              "H86 C80 N16 F16 I6"
_cell_length_a       10.329321995308232
_cell_length_b       7.722783402576268
_cell_length_c       26.713708867472548
_cell_angle_alpha    90.0
_cell_angle_beta     92.83547115046217
_cell_angle_gamma    90.0

_space_group_name_H-M_alt    "P 1"
_space_group_IT_number       1

loop_
  _space_group_symop_operation_xyz
  'x, y, z'

loop_
  _atom_site_type_symbol
  _atom_site_label
  _atom_site_symmetry_multiplicity
  _atom_site_fract_x
  _atom_site_fract_y
  _atom_site_fract_z
  _atom_site_occupancy
  H   H1        1.0  0.689324750363036  0.5178964929491302  0.9536603149625479  1.0000
  H   H2        1.0  0.31067524971998833  0.01789649311592681  0.04633968495754148  1.0000
  H   H3        1.0  0.7230564221263696  0.5138014201817844  0.04506360645824281  1.0000
  H   H4        1.0  0.2769435779566547  0.013801420348581036  0.9549363934618464  1.0000
  H   H5        1.0  0.055182281569742614  0.854189425770944  0.03242837802899636  1.0000
  H   H6        1.0  0.9448177185132817  0.35418942593774067  0.9675716218910928  1.0000
  H   H7        1.0  0.017544985504075263  0.8551227783750835  0.9414287539564059  1.0000
  H   H8        1.0  0.9824550145789489  0.3551227785418801  0.0585712459636833  1.0000
  H   H9        1.0  0.8206246608056146  0.4460672739896876  0.11929183852606785  1.0000
  H   H10       1.0  0.17937533927740987  0.946067273822891  0.8807081613940215  1.0000
  H   H11       1.0  0.7251169372848802  0.6382948288250039  0.1237074322219214  1.0000
  H   H12       1.0  0.27488306183004485  0.13829482899180048  0.8762925676983121  1.0000
  H   H13       1.0  0.856100850752037  0.5977897578300504  0.167725617925032  1.0000
  H   H14       1.0  0.14389914933098727  0.097789757996847  0.8322743819950573  1.0000
  H   H15       1.0  0.996429000796148  0.9097564160165651  0.12752641302890838  1.0000
  H   H16       1.0  0.003570999286876276  0.4097564161833618  0.8724735868911808  1.0000
  H   H17       1.0  0.10991008010286558  0.7620714920007596  0.10328426875164694  1.0000
  H   H18       1.0  0.8900899199801587  0.26207149216755626  0.8967157311684423  1.0000
  H   H19       1.0  0.03930092791687697  0.7161251742674888  0.16059020115115644  1.0000
  H   H20       1.0  0.9606990721661474  0.2161251744342854  0.8394097987689327  1.0000
  H   H21       1.0  0.5811967649141678  0.833682439915667  0.06785571490553287  1.0000
  H   H22       1.0  0.4188032351688565  0.3336824400824636  0.9321442850145564  1.0000
  H   H23       1.0  0.5394122721376066  0.8347673557501839  0.9768090870570026  1.0000
  H   H24       1.0  0.4605877279454177  0.3347673559169806  0.02319091286308665  1.0000
  H   H25       1.0  0.19689479915140753  0.5191138286569871  0.996307443847032  1.0000
  H   H26       1.0  0.8031052009316166  0.019113828823783617  0.003692556073057431  1.0000
  H   H27       1.0  0.24093175576055662  0.5257709116437829  0.0871770050982324  1.0000
  H   H28       1.0  0.7590682433543684  0.02577091181057949  0.9128229948220011  1.0000
  H   H29       1.0  0.5251970636213172  0.67922923984248  0.898012858103858  1.0000
  H   H30       1.0  0.4748029354936079  0.17922924000927665  0.10198714181637565  1.0000
  H   H31       1.0  0.45433337711688226  0.8879914420119948  0.9042186557665544  1.0000
  H   H32       1.0  0.545666622966142  0.3879914421787914  0.0957813441535349  1.0000
  H   H33       1.0  0.394675404980705  0.7458109414383667  0.8564985445318614  1.0000
  H   H34       1.0  0.6053245951023194  0.24581094160516337  0.14350145538822784  1.0000
  H   H35       1.0  0.14089579527557106  0.605760744039435  0.9245922981320769  1.0000
  H   H36       1.0  0.8591042048557754  0.10576074420623165  0.07540770216281094  1.0000
  H   H37       1.0  0.248960393109568  0.4431376489023839  0.9042595240693204  1.0000
  H   H38       1.0  0.7510396069734563  0.9431376487355873  0.0957404758507689  1.0000
  H   H39       1.0  0.2130211205039702  0.6273775719753718  0.8661142630523652  1.0000
  H   H40       1.0  0.7869788795790542  0.12737757214216847  0.1338857368677242  1.0000
  H   H41       1.0  0.625467232463768  0.33583326953528225  0.4994834464547704  1.0000
  H   H42       1.0  0.37453276761925625  0.8358332693684856  0.5005165534653189  1.0000
  H   H43       1.0  0.8486366048101239  0.24536198430320882  0.37300076813394517  1.0000
  H   H44       1.0  0.15136339532122273  0.7453619841364123  0.6269992321609427  1.0000
  H   H45       1.0  0.012162549204776883  0.3599259548147801  0.45250468799380433  1.0000
  H   H46       1.0  0.9878374509265697  0.8599259546479835  0.5474953123010834  1.0000
  H   H47       1.0  0.5808131666683164  0.2822636472327857  0.36397932052734716  1.0000
  H   H48       1.0  0.41918683346303015  0.782263647065989  0.6360206797675406  1.0000
  H   H49       1.0  0.5041329665880787  0.24340108378190867  0.4215804867484819  1.0000
  H   H50       1.0  0.4958670334949456  0.743401083615112  0.5784195131716073  1.0000
  H   H51       1.0  0.595506659302555  0.07435648263920464  0.3940682208770914  1.0000
  H   H52       1.0  0.4044933408287916  0.574356482472408  0.6059317794177963  1.0000
  H   H53       1.0  0.7970234379150541  0.48632731286327285  0.5572456974532418  1.0000
  H   H54       1.0  0.20297656216797005  0.9863273139913462  0.4427543024668475  1.0000
  H   H55       1.0  0.9515045416378476  0.5251113359785764  0.5340395047038137  1.0000
  H   H56       1.0  0.048495458445176755  0.025111336145372982  0.46596049521627564  1.0000
  H   H57       1.0  0.01196907439790801  0.2117148863005229  0.5514063397169139  1.0000
  H   H58       1.0  0.9880309256851164  0.7117148861337262  0.4485936602031754  1.0000
  H   H59       1.0  0.8589771589007601  0.18069364596377063  0.5776702309434024  1.0000
  H   H60       1.0  0.14102284118226413  0.680693645796974  0.42232976897668684  1.0000
  H   H61       1.0  0.07490597814928732  0.4300869747158752  0.6144824474905471  1.0000
  H   H62       1.0  0.9250940219337369  0.9300869745490785  0.38551755242954205  1.0000
  H   H63       1.0  0.9193111907611459  0.42840647309832747  0.6390057800522844  1.0000
  H   H64       1.0  0.08068880937020075  0.9284064729315308  0.36099422024260347  1.0000
  H   H65       1.0  0.11247499220623744  0.12669534661215526  0.6418004257990304  1.0000
  H   H66       1.0  0.8875250078767869  0.6266953464453585  0.3581995741210589  1.0000
  H   H67       1.0  0.9510118611814399  0.10878606665567468  0.6595365219655892  1.0000
  H   H68       1.0  0.04898813890158437  0.6087860664888781  0.3404634779545  1.0000
  H   H69       1.0  0.0996433248908264  0.147482487935638  0.7332723804215527  1.0000
  H   H70       1.0  0.9003566751921979  0.6474824877688413  0.26672761949853646  1.0000
  H   H71       1.0  0.9909182503018736  0.3235492658212388  0.7275014015708532  1.0000
  H   H72       1.0  0.009081749781150714  0.8235492656544421  0.2724985983492361  1.0000
  H   H73       1.0  0.263595685703796  0.3358915723487277  0.6876406794763001  1.0000
  H   H74       1.0  0.7364043143792283  0.835891573476801  0.31235932044378906  1.0000
  H   H75       1.0  0.15941167690574773  0.5125768474458917  0.6957780616320438  1.0000
  H   H76       1.0  0.8405883232255988  0.012576847612688279  0.304221938662844  1.0000
  H   H77       1.0  0.1733000838590888  0.46401465031436384  0.7888067412979544  1.0000
  H   H78       1.0  0.8266999162239355  0.9640146514424371  0.21119325862213492  1.0000
  H   H79       1.0  0.27526966776139955  0.2850877896258928  0.7804133070078166  1.0000
  H   H80       1.0  0.7247303323216246  0.7850877894590962  0.21958669291227262  1.0000
  H   H81       1.0  0.3389114647517628  0.6641822077113918  0.7553635856371648  1.0000
  H   H82       1.0  0.6610885353312614  0.1641822078781884  0.2446364142829245  1.0000
  H   H83       1.0  0.43540759810452134  0.4856705872067812  0.7388190106179372  1.0000
  H   H84       1.0  0.564592401978503  0.9856705870399846  0.26118098930215217  1.0000
  H   H85       1.0  0.41679602607802246  0.5327871371644836  0.8027027865530681  1.0000
  H   H86       1.0  0.5832039740050018  0.032787136036410335  0.19729721336702116  1.0000
  C   C1        1.0  0.7389586187423233  0.7397856928234078  0.7887620581946865  1.0000
  C   C2        1.0  0.261041381340701  0.23978569169533456  0.21123794172540275  1.0000
  C   C3        1.0  0.715894629543178  0.7516713129703331  0.7371091324322793  1.0000
  C   C4        1.0  0.2841053705398464  0.2516713131371297  0.26289086748781004  1.0000
  C   C5        1.0  0.8151209728241174  0.7762684226000854  0.7043582052260238  1.0000
  C   C6        1.0  0.18487902725890693  0.276268422766882  0.2956417946940656  1.0000
  C   C7        1.0  0.9406574726794372  0.7872940600628161  0.7256650231434651  1.0000
  C   C8        1.0  0.05934252740358699  0.28729406022961274  0.2743349767766241  1.0000
  C   C9        1.0  0.9652493625086738  0.7770643765560061  0.7771944315559451  1.0000
  C   C10       1.0  0.034750637622672775  0.2770643767228028  0.22280556873894253  1.0000
  C   C11       1.0  0.8658329517714352  0.7527132235847517  0.8108737364996915  1.0000
  C   C12       1.0  0.13416704831158927  0.2527132237515483  0.18912626342039782  1.0000
  C   C13       1.0  0.8520410868160379  0.6834774504020376  0.9409006692400725  1.0000
  C   C14       1.0  0.1479589132669865  0.1834774492739642  0.0590993306800168  1.0000
  C   C15       1.0  0.7695664800730022  0.5899930235619478  0.971591192521291  1.0000
  C   C16       1.0  0.230433520010022  0.08999302372874446  0.028408807398798322  1.0000
  C   C17       1.0  0.789146043169177  0.5878506962250862  0.023043655558832254  1.0000
  C   C18       1.0  0.21085395696216952  0.08785069509701295  0.9769563447360555  1.0000
  C   C19       1.0  0.8941606392726166  0.6803704035318644  0.04699056187015695  1.0000
  C   C20       1.0  0.10583936085873004  0.18037040369866095  0.9530094384247307  1.0000
  C   C21       1.0  0.9758719694800887  0.7776824697681514  0.015835423640636434  1.0000
  C   C22       1.0  0.024128030651257844  0.277682469934948  0.9841645766542514  1.0000
  C   C23       1.0  0.9554424046652008  0.7780933604839186  0.9644813196917479  1.0000
  C   C24       1.0  0.04455759541782345  0.2780933606507152  0.03551868022834144  1.0000
  C   C25       1.0  0.8238787501009008  0.5848646523600846  0.12835923191397686  1.0000
  C   C26       1.0  0.1761212499821234  0.08486465252688116  0.8716407680061125  1.0000
  C   C27       1.0  0.02016902492107486  0.7716231078049  0.12329393144996906  1.0000
  C   C28       1.0  0.9798309751619494  0.2716231079716966  0.8767060684701201  1.0000
  C   C29       1.0  0.5185792359870799  0.5795809783434874  0.23451007353580608  1.0000
  C   C30       1.0  0.4814207640959445  0.07958097851028399  0.7654899263842831  1.0000
  C   C31       1.0  0.5525326933135932  0.5829667679787732  0.2855687895761427  1.0000
  C   C32       1.0  0.4474673058013318  0.08296676814556982  0.7144312103440909  1.0000
  C   C33       1.0  0.4775053724200675  0.6699072756946853  0.3194978296957304  1.0000
  C   C34       1.0  0.5224946276629567  0.1699072758614819  0.6805021702243589  1.0000
  C   C35       1.0  0.3628439536693408  0.7464905474465126  0.3006377690175925  1.0000
  C   C36       1.0  0.6371560464136835  0.2464905463184393  0.6993622309024968  1.0000
  C   C37       1.0  0.3254010549435551  0.7374460648605192  0.2499609571432179  1.0000
  C   C38       1.0  0.6745989451394693  0.23744606502731583  0.7500390427768714  1.0000
  C   C39       1.0  0.40369388721495786  0.6575711482865  0.21517285301250538  1.0000
  C   C40       1.0  0.5963061128680665  0.15757114715842666  0.7848271469075839  1.0000
  C   C41       1.0  0.41272391617895565  0.6848731104171046  0.08389720231219883  1.0000
  C   C42       1.0  0.5872760839040687  0.1848731105839013  0.9161027976078904  1.0000
  C   C43       1.0  0.49646163464909115  0.7674368282843304  0.05138209275027898  1.0000
  C   C44       1.0  0.5035383654822553  0.267436828451127  0.9486179075446087  1.0000
  C   C45       1.0  0.47230035017557614  0.7678382327829941  0.0001625117572448705  1.0000
  C   C46       1.0  0.5276996499557703  0.26783823165492077  0.9998374885376429  1.0000
  C   C47       1.0  0.3620675801574716  0.6806244026274942  0.9785273052186148  1.0000
  C   C48       1.0  0.637932419973875  0.18062440279429084  0.02147269507627303  1.0000
  C   C49       1.0  0.27951825134712527  0.5926878343464971  0.011399945663357025  1.0000
  C   C50       1.0  0.7204817487358991  0.09268783451329365  0.9886000542567324  1.0000
  C   C51       1.0  0.30361642645252856  0.5960885577166797  0.062629605963266  1.0000
  C   C52       1.0  0.696383573678818  0.09608855788347632  0.9373703943316218  1.0000
  C   C53       1.0  0.43336221033292704  0.7517394399619336  0.8952228116416044  1.0000
  C   C54       1.0  0.5666377897500972  0.2517394388338603  0.1047771882784848  1.0000
  C   C55       1.0  0.22994273046190367  0.5836001626688753  0.9048181171894125  1.0000
  C   C56       1.0  0.7700572686530215  0.08360016283567186  0.09518188273082112  1.0000
  C   C57       1.0  0.7084093583503244  0.32639073098426274  0.4762657555838561  1.0000
  C   C58       1.0  0.29159064173269994  0.8263907308174661  0.5237342443362332  1.0000
  C   C59       1.0  0.8283064431486522  0.2794490661592379  0.4110454603333389  1.0000
  C   C60       1.0  0.17169355698269448  0.7794490659924413  0.5889545399615488  1.0000
  C   C61       1.0  0.9084925725082775  0.33683246498046665  0.44984604725958643  1.0000
  C   C62       1.0  0.09150742757474678  0.83683246481367  0.5501539526605028  1.0000
  C   C63       1.0  0.5888697739287077  0.21455320881422796  0.39998241647449406  1.0000
  C   C64       1.0  0.41113022615431655  0.7145532086474313  0.6000175834455952  1.0000
  C   C65       1.0  0.878657219694166  0.42420790914673673  0.5396042278297699  1.0000
  C   C66       1.0  0.12134278043718047  0.9242079089799401  0.46039577246511776  1.0000
  C   C67       1.0  0.935304413087093  0.27714296626343365  0.5715784308383599  1.0000
  C   C68       1.0  0.06469558704425347  0.777142966096637  0.42842156945652776  1.0000
  C   C69       1.0  0.9915998625500031  0.3460085115307765  0.6215610200274497  1.0000
  C   C70       1.0  0.008400136613244147  0.8460085126588498  0.3784389802675822  1.0000
  C   C71       1.0  0.03231926164950977  0.20018639128015245  0.6574283458243382  1.0000
  C   C72       1.0  0.9676807384335145  0.7001863911133559  0.342571654095751  1.0000
  C   C73       1.0  0.07364036457119098  0.26167547303292926  0.7100985629017643  1.0000
  C   C74       1.0  0.9263596355118333  0.7616754741610026  0.2899014370183251  1.0000
  C   C75       1.0  0.1885178521869383  0.3860669262076401  0.7117762880831658  1.0000
  C   C76       1.0  0.811482147896086  0.8860669260408435  0.28822371183692336  1.0000
  C   C77       1.0  0.24768138221973213  0.41232762904340076  0.7646199551841333  1.0000
  C   C78       1.0  0.7523186178632921  0.9123276288766041  0.2353800447359559  1.0000
  C   C79       1.0  0.3656535488307291  0.5306555391198579  0.7657594717132573  1.0000
  C   C80       1.0  0.6343464513006174  0.030655539286654484  0.23424052858163044  1.0000
  N   N1        1.0  0.9017620217416701  0.7535888806694426  0.8619358297816122  1.0000
  N   N2        1.0  0.09823797834135427  0.2535888795413694  0.13806417013847722  1.0000
  N   N3        1.0  0.8219718559968459  0.6757267474650586  0.8898306096789768  1.0000
  N   N4        1.0  0.17802814408617854  0.1757267476318552  0.11016939024111252  1.0000
  N   N5        1.0  0.9149864009478381  0.6755473678388557  0.09769012846184892  1.0000
  N   N6        1.0  0.08501359913518629  0.17554736800565232  0.9023098714582404  1.0000
  N   N7        1.0  0.36004225252792466  0.6528605215469407  0.164559087619815  1.0000
  N   N8        1.0  0.6399577465870004  0.15286052171373735  0.8354409123004185  1.0000
  N   N9        1.0  0.4474773082800622  0.6967191049544474  0.13466873362991977  1.0000
  N   N10       1.0  0.5525226908348627  0.1967191051212441  0.8653312662903138  1.0000
  N   N11       1.0  0.3377844118800972  0.6805173052304957  0.9278870041743768  1.0000
  N   N12       1.0  0.662215588202927  0.18051730539729224  0.07211299574571245  1.0000
  N   N13       1.0  0.7045353813913351  0.27403921224749117  0.4283338212510637  1.0000
  N   N14       1.0  0.2954646186916891  0.7740392120806946  0.5716661786690256  1.0000
  N   N15       1.0  0.8316032820100919  0.3659661824850834  0.48988582876786546  1.0000
  N   N16       1.0  0.16839671807293236  0.8659661823182868  0.5101141711522238  1.0000
  F   F1        1.0  0.6350923910422368  0.7232717219722435  0.8171037045780342  1.0000
  F   F2        1.0  0.3649076090407874  0.2232717221390402  0.1828962953420551  1.0000
  F   F3        1.0  0.5914412416435783  0.7386887178652375  0.7185353091732417  1.0000
  F   F4        1.0  0.4085587575196691  0.23868871803203412  0.2814646911217901  1.0000
  F   F5        1.0  0.0433657819300924  0.807341815118118  0.6962840845200976  1.0000
  F   F6        1.0  0.9566342181529319  0.3073418152849146  0.30371591539999165  1.0000
  F   F7        1.0  0.09013076895199455  0.7875447261632476  0.7952272882847166  1.0000
  F   F8        1.0  0.9098692311310299  0.2875447263300441  0.20477271163537283  1.0000
  F   F9        1.0  0.5965542357993768  0.49231110233282915  0.20393326168517273  1.0000
  F   F10       1.0  0.40344576428364753  0.9923111021660326  0.7960667382349165  1.0000
  F   F11       1.0  0.6627580380147382  0.4996988066132531  0.3017774308814661  1.0000
  F   F12       1.0  0.3372419620682861  0.9996988064464566  0.6982225690386231  1.0000
  F   F13       1.0  0.28739127587702096  0.836950318695173  0.3314927831195459  1.0000
  F   F14       1.0  0.7126087242060033  0.3369503188619696  0.6685072168005434  1.0000
  F   F15       1.0  0.21430320375155126  0.8165908742042723  0.23326270263377538  1.0000
  F   F16       1.0  0.7856967963314729  0.31659087307619904  0.766737297286314  1.0000
  I   I1        1.0  0.6981079031173243  0.8437068476925541  0.5033686215427832  1.0000
  I   I2        1.0  0.3018920969657001  0.3437068478593507  0.4966313783773061  1.0000
  I   I3        1.0  0.7711967566113787  0.800723411190986  0.6260053991305335  1.0000
  I   I4        1.0  0.22880324351996795  0.30072341135778274  0.37399460116435423  1.0000
  I   I5        1.0  0.5461140321475374  0.7074937176377764  0.39492755048512396  1.0000
  I   I6        1.0  0.45388596798380926  0.20749371780457296  0.6050724498097638  1.0000
