data_image0
_chemical_formula_structural       H22C30N10F4I2
_chemical_formula_sum              "H22 C30 N10 F4 I2"
_cell_length_a       5.019200431355
_cell_length_b       8.032836317097507
_cell_length_c       19.735909854922088
_cell_angle_alpha    94.1875681487028
_cell_angle_beta     92.58355259181214
_cell_angle_gamma    105.03766926741325

_space_group_name_H-M_alt    "P 1"
_space_group_IT_number       1

loop_
  _space_group_symop_operation_xyz
  'x, y, z'

loop_
  _atom_site_type_symbol
  _atom_site_label
  _atom_site_symmetry_multiplicity
  _atom_site_fract_x
  _atom_site_fract_y
  _atom_site_fract_z
  _atom_site_occupancy
  H   H1        1.0  0.2691062133896897  0.08251730309099503  0.26492958034806185  1.0000
  H   H2        1.0  0.7308937868750078  0.9174826963859191  0.735070419474778  1.0000
  H   H3        1.0  0.4926798816365247  0.20648718683105743  0.1467333376185701  1.0000
  H   H4        1.0  0.5073201186281728  0.7935128126458568  0.8532666622042698  1.0000
  H   H5        1.0  0.07809390721229904  0.5406657561951663  0.05915142296666017  1.0000
  H   H6        1.0  0.9219060916138112  0.45933424458045774  0.9408485768598336  1.0000
  H   H7        1.0  0.29520480172595925  0.6821262964587917  0.9427307446812618  1.0000
  H   H8        1.0  0.7047951990876163  0.31787370430704487  0.05726925514122242  1.0000
  H   H9        1.0  0.7530281432532021  0.8938408049576863  0.981692118252438  1.0000
  H   H10       1.0  0.24697185756037357  0.10615919580815034  0.018307881570046484  1.0000
  H   H11       1.0  0.5364115671229143  0.8400698654562685  0.2212665216845496  1.0000
  H   H12       1.0  0.4635884338441301  0.15993013542402382  0.7787334786470917  1.0000
  H   H13       1.0  0.7841036976981008  0.9381002417545795  0.2893856412068191  1.0000
  H   H14       1.0  0.2158963027200655  0.06189975783679052  0.7106143591251779  1.0000
  H   H15       1.0  0.5476278268597836  0.40721088870385036  0.36951321015992084  1.0000
  H   H16       1.0  0.45237217355838266  0.5927891108875196  0.6304867901720761  1.0000
  H   H17       1.0  0.8332361984538027  0.23842475672678012  0.30875768114142726  1.0000
  H   H18       1.0  0.1667638023597729  0.7615752440390563  0.691242318681057  1.0000
  H   H19       1.0  0.09236757890783942  0.3642976048985229  0.20971739543122533  1.0000
  H   H20       1.0  0.9076324213568582  0.6357023945783913  0.7902826043916146  1.0000
  H   H21       1.0  0.06388969470530213  0.6541600430391887  0.17840578945163674  1.0000
  H   H22       1.0  0.9361103037253989  0.34583995656196875  0.8215942108843697  1.0000
  C   C1        1.0  0.8985159808516499  0.9320989118564504  0.1236809346793438  1.0000
  C   C2        1.0  0.10148401996192567  0.067901088909386  0.8763190651431405  1.0000
  C   C3        1.0  0.1914975658318132  0.054698217720184586  0.21206346444349458  1.0000
  C   C4        1.0  0.8085024349817623  0.9453017830456518  0.7879365353789898  1.0000
  C   C5        1.0  0.2975386225003137  0.11334223987152431  0.15257101003207021  1.0000
  C   C6        1.0  0.7024613759303874  0.8866577597296332  0.8474289903039363  1.0000
  C   C7        1.0  0.6597776958533634  0.8225512063424384  0.08442127163796412  1.0000
  C   C8        1.0  0.34022230496021216  0.17744879442339812  0.9155787281845202  1.0000
  C   C9        1.0  0.270424338676733  0.6368668673258517  0.05393231424750139  1.0000
  C   C10       1.0  0.7295756596004994  0.3631331321608501  0.946067685579348  1.0000
  C   C11       1.0  0.37417906598789274  0.7060456838321302  0.9954757743077433  1.0000
  C   C12       1.0  0.6258209349791516  0.29395431704816216  0.0045242260238981214  1.0000
  C   C13       1.0  0.7489287903480221  0.8543958207875998  0.24153562540251416  1.0000
  C   C14       1.0  0.2510712104655536  0.14560417997823671  0.7584643744199702  1.0000
  C   C15       1.0  0.781794107148623  0.6788953068653067  0.2561747900271395  1.0000
  C   C16       1.0  0.2182058931160746  0.3211046926116074  0.7438252097957004  1.0000
  C   C17       1.0  0.6612634732600339  0.45547284856184295  0.32603195406228686  1.0000
  C   C18       1.0  0.3387365275535417  0.5445271522039935  0.6739680457601974  1.0000
  C   C19       1.0  0.8195451293651574  0.36181881516819037  0.2917420839770763  1.0000
  C   C20       1.0  0.18045487089954002  0.6381811843087237  0.7082579158457636  1.0000
  C   C21       1.0  0.9633863568742915  0.4325919546640209  0.23731997861681298  1.0000
  C   C22       1.0  0.03661364339040596  0.5674080448128932  0.762680021206027  1.0000
  C   C23       1.0  0.9454490549480641  0.5938906527043726  0.21921894460138983  1.0000
  C   C24       1.0  0.05455094601898021  0.40610934817591965  0.7807810557302516  1.0000
  C   C25       1.0  0.1497620947279281  0.9113775171029014  0.4572602917726898  1.0000
  C   C26       1.0  0.8502379055367696  0.08862248237401275  0.5427397080501501  1.0000
  C   C27       1.0  0.10084102764554662  0.06756226497387033  0.4416266433037032  1.0000
  C   C28       1.0  0.899158973168029  0.9324377357919662  0.5583733565187811  1.0000
  C   C29       1.0  0.045796755981006805  0.8453273849946459  0.516912068988036  1.0000
  C   C30       1.0  0.9542032424496946  0.15467261460651172  0.4830879313479704  1.0000
  N   N1        1.0  0.9366734921895532  0.9410574623614246  0.1935094265036293  1.0000
  N   N2        1.0  0.06332650624114806  0.058942537239732994  0.8064905738323772  1.0000
  N   N3        1.0  0.1156888128729887  0.0374502927351103  0.09796665339243124  1.0000
  N   N4        1.0  0.884311187391709  0.9625497067418038  0.9020333464304087  1.0000
  N   N5        1.0  0.44872184319229164  0.7091503970706212  0.10919100313972575  1.0000
  N   N6        1.0  0.5512781570724059  0.2908496024062929  0.8908089966831142  1.0000
  N   N7        1.0  0.6214828355721448  0.8232367512877219  0.015412579242275721  1.0000
  N   N8        1.0  0.3785171627050876  0.17676324819897976  0.9845874205845735  1.0000
  N   N9        1.0  0.6417486053431107  0.6100138295503509  0.30835370243440724  1.0000
  N   N10       1.0  0.358251394921587  0.38998616992656354  0.6916462973884328  1.0000
  F   F1        1.0  0.19447310522243078  0.1383375731883666  0.38339840520703977  1.0000
  F   F2        1.0  0.8055268950422667  0.8616624262885476  0.6166015946158002  1.0000
  F   F3        1.0  0.08758513634328192  0.6945583461571246  0.535890438947512  1.0000
  F   F4        1.0  0.9124148639214156  0.3054416533197895  0.46410956087532795  1.0000
  I   I1        1.0  0.36567249063135415  0.7783390097945821  0.3917044008802364  1.0000
  I   I2        1.0  0.6343275096333435  0.221660989682332  0.6082955989426035  1.0000
