data_image0
_chemical_formula_structural       H34C32N10O8
_chemical_formula_sum              "H34 C32 N10 O8"
_cell_length_a       5.075639698040562
_cell_length_b       11.294084643467459
_cell_length_c       14.042234842611855
_cell_angle_alpha    90.7561288262939
_cell_angle_beta     98.90114670163206
_cell_angle_gamma    99.9453517657672

_space_group_name_H-M_alt    "P 1"
_space_group_IT_number       1

loop_
  _space_group_symop_operation_xyz
  'x, y, z'

loop_
  _atom_site_type_symbol
  _atom_site_label
  _atom_site_symmetry_multiplicity
  _atom_site_fract_x
  _atom_site_fract_y
  _atom_site_fract_z
  _atom_site_occupancy
  H   H1        1.0  0.6306321716603374  0.13097784038081786  0.20764551347529203  1.0000
  H   H2        1.0  0.36936782973229265  0.8690221600036234  0.7923544859726827  1.0000
  H   H3        1.0  0.007698490163055258  0.010436176087618747  0.2548240844329993  1.0000
  H   H4        1.0  0.9923015092303339  0.9895638242962276  0.7451759156135773  1.0000
  H   H5        1.0  0.2825171122610902  0.10093338201218847  0.4361184251246376  1.0000
  H   H6        1.0  0.7174828891263912  0.899066618371373  0.5638815750351749  1.0000
  H   H7        1.0  0.3762833975839058  0.2923717507792071  0.19678231562225862  1.0000
  H   H8        1.0  0.6237166018094833  0.7076282496046393  0.8032176844243181  1.0000
  H   H9        1.0  0.3963479894653327  0.546792628439964  0.42321534791599336  1.0000
  H   H10       1.0  0.6036520095690086  0.453207371044198  0.5767846521002564  1.0000
  H   H11       1.0  0.15348628597007816  0.46196717457798003  0.2363648198937799  1.0000
  H   H12       1.0  0.8465137154174034  0.5380328258055814  0.7636351802660325  1.0000
  H   H13       1.0  0.16320302389482744  0.3732552626919266  0.6915103854415691  1.0000
  H   H14       1.0  0.836796977133606  0.6267447367919504  0.3084896146879165  1.0000
  H   H15       1.0  0.891576091355772  0.2990645127828108  0.8209184815522095  1.0000
  H   H16       1.0  0.1084239080376172  0.7009354876010356  0.1790815184943672  1.0000
  H   H17       1.0  0.5041116371685311  0.12613593080177152  0.7797470644937319  1.0000
  H   H18       1.0  0.4958883618658101  0.8738640686823905  0.22025293552251782  1.0000
  H   H19       1.0  0.39365936430405035  0.040716247470350686  0.6092241349791562  1.0000
  H   H20       1.0  0.6063406370834312  0.9592837529132108  0.39077586518065627  1.0000
  H   H21       1.0  0.06459508797609954  0.385207683351968  0.49418026759080447  1.0000
  H   H22       1.0  0.9354049110582416  0.6147923161321941  0.5058197324254453  1.0000
  H   H23       1.0  0.29455595902961484  0.28642201142922363  0.5295558541447727  1.0000
  H   H24       1.0  0.7054440423578666  0.7135779889543379  0.4704441460150398  1.0000
  H   H25       1.0  0.9942946814752215  0.10954688179102835  0.9365598615442091  1.0000
  H   H26       1.0  0.005705319912260206  0.8904531185925332  0.0634401386156034  1.0000
  H   H27       1.0  0.2431462172787263  0.013101237484557233  0.9447399184163098  1.0000
  H   H28       1.0  0.7568537817556149  0.9868987619996049  0.05526008159994007  1.0000
  H   H29       1.0  0.982068418355129  0.2715666441934281  0.03431167819923352  1.0000
  H   H30       1.0  0.017931580679212075  0.7284333552907339  0.9656883218170162  1.0000
  H   H31       1.0  0.3686023299011428  0.3781215632292277  0.9474280825909533  1.0000
  H   H32       1.0  0.6313976711272907  0.6218784362546493  0.0525719175385322  1.0000
  H   H33       1.0  0.6242823680894976  0.4820031657436626  0.9083724317037482  1.0000
  H   H34       1.0  0.3757176309499921  0.5179968337413792  0.09162756760066385  1.0000
  C   C1        1.0  0.7944533476835333  0.23737465321271753  0.3425683736663771  1.0000
  C   C2        1.0  0.2055466537039483  0.762625347170844  0.6574316264934355  1.0000
  C   C3        1.0  0.9776563190600512  0.08330985812339996  0.30051073134807516  1.0000
  C   C4        1.0  0.022343680333337803  0.9166901422604463  0.6994892686985015  1.0000
  C   C5        1.0  0.11232104440380439  0.12653988632480284  0.3894677799450752  1.0000
  C   C6        1.0  0.8876789546305367  0.8734601131593592  0.6105322200711746  1.0000
  C   C7        1.0  0.6272474328011324  0.32813221851713564  0.3398683743421894  1.0000
  C   C8        1.0  0.37275256623320874  0.6718677809670264  0.6601316256740604  1.0000
  C   C9        1.0  0.442564220427606  0.47662452958361956  0.3783020591881883  1.0000
  C   C10       1.0  0.5574357786067352  0.5233754699005425  0.6216979408280616  1.0000
  C   C11       1.0  0.3173306009096037  0.43607178257173307  0.28616219836196954  1.0000
  C   C12       1.0  0.6826694001239784  0.5639282169130237  0.7138378010556783  1.0000
  C   C13       1.0  0.9165334126883818  0.24470390927443844  0.583675388471724  1.0000
  C   C14       1.0  0.08346658834005181  0.7552960902094388  0.41632461165776163  1.0000
  C   C15       1.0  0.99125153570278  0.2993164168941424  0.6765061813477259  1.0000
  C   C16       1.0  0.008748463690609155  0.700683583489704  0.3234938186988509  1.0000
  C   C17       1.0  0.841220942986233  0.25791934384303533  0.7481635056062133  1.0000
  C   C18       1.0  0.1587790564071561  0.7420806565408111  0.2518364944403634  1.0000
  C   C19       1.0  0.6226828673055317  0.1627313496537424  0.7251269768211103  1.0000
  C   C20       1.0  0.3773171337229018  0.8372686498301348  0.27487302330837526  1.0000
  C   C21       1.0  0.5634361347199712  0.11462812728946932  0.630826355102572  1.0000
  C   C22       1.0  0.4365638666675102  0.8853718730940922  0.3691736450572405  1.0000
  C   C23       1.0  0.0803569691471252  0.29078506702375656  0.5060805311555646  1.0000
  C   C24       1.0  0.9196430302514124  0.7092149333609696  0.49391946817917437  1.0000
  C   C25       1.0  0.2689616069885961  0.12141846633971501  0.07159598402401202  1.0000
  C   C26       1.0  0.731038392045745  0.878581533144447  0.9284040159922378  1.0000
  C   C27       1.0  0.10289659900339929  0.051091990412363314  0.9836966965173431  1.0000
  C   C28       1.0  0.8971034003899897  0.9489080099714831  0.016303303529233534  1.0000
  C   C29       1.0  0.7560683652530752  0.3945643990131044  0.03475763466717239  1.0000
  C   C30       1.0  0.24393163414031396  0.6054356013707421  0.9652423653794044  1.0000
  C   C31       1.0  0.5424550329253759  0.44948912446186856  0.9732153991743786  1.0000
  C   C32       1.0  0.4575449661089654  0.5505108750222936  0.026784600841871196  1.0000
  N   N1        1.0  0.9979376931564079  0.22274384715097673  0.4145587811748906  1.0000
  N   N2        1.0  0.0020623062369813203  0.7772561532328696  0.5854412188716861  1.0000
  N   N3        1.0  0.7827035857953628  0.15246583070647443  0.2729293661910946  1.0000
  N   N4        1.0  0.21729641559211874  0.8475341696770871  0.7270706339687178  1.0000
  N   N5        1.0  0.43597058310342474  0.34231717197963657  0.26285800506389495  1.0000
  N   N6        1.0  0.5640294179250089  0.6576828275042406  0.7371419950655906  1.0000
  N   N7        1.0  0.6348975739767507  0.40907025468781727  0.41173833369920315  1.0000
  N   N8        1.0  0.3651024270516829  0.5909297447960599  0.5882616664302824  1.0000
  N   N9        1.0  0.7059892137668525  0.15427249821733574  0.5606471996277538  1.0000
  N   N10       1.0  0.29401078526748853  0.8457275012668263  0.439352800388496  1.0000
  O   O1        1.0  0.4435953524091157  0.07098324645318495  0.12246272542485029  1.0000
  O   O2        1.0  0.5564046469842735  0.9290167539306615  0.8775372746217265  1.0000
  O   O3        1.0  0.2223331881582736  0.2257512608145297  0.09276802430896036  1.0000
  O   O4        1.0  0.7776668108760675  0.7742487386696323  0.9072319757072895  1.0000
  O   O5        1.0  0.8268200450764348  0.30248863301073586  0.9901771448032385  1.0000
  O   O6        1.0  0.1731799559519988  0.6975113664731412  0.009822855326247003  1.0000
  O   O7        1.0  0.8585310282079816  0.4318689822232875  0.1174174770788852  1.0000
  O   O8        1.0  0.141468972820452  0.5681310172605896  0.8825825230506003  1.0000
