data_image0
_chemical_formula_structural       H48C36N12O8Br24
_chemical_formula_sum              "H48 C36 N12 O8 Br24"
_cell_length_a       13.950665398315918
_cell_length_b       5.953956973988319
_cell_length_c       20.511599644745075
_cell_angle_alpha    90.0
_cell_angle_beta     93.27816574118924
_cell_angle_gamma    90.0

_space_group_name_H-M_alt    "P 1"
_space_group_IT_number       1

loop_
  _space_group_symop_operation_xyz
  'x, y, z'

loop_
  _atom_site_type_symbol
  _atom_site_label
  _atom_site_symmetry_multiplicity
  _atom_site_fract_x
  _atom_site_fract_y
  _atom_site_fract_z
  _atom_site_occupancy
  H   H1        1.0  0.4077362600067309  0.9532961499044813  0.7372165079783294  1.0000
  H   H2        1.0  0.5922637400519384  0.4532961493996337  0.762783491800396  1.0000
  H   H3        1.0  0.592263739917727  0.04670385110521384  0.26278349197545203  1.0000
  H   H4        1.0  0.40773625987251955  0.5467038516100614  0.23721650815338544  1.0000
  H   H5        1.0  0.49443365817961  0.07909213520643824  0.6890257446899758  1.0000
  H   H6        1.0  0.5055663419209604  0.5790921340317304  0.8109742555770775  1.0000
  H   H7        1.0  0.5055663417448479  0.9209078658032569  0.3109742552638056  1.0000
  H   H8        1.0  0.49443365804539857  0.42090786529840934  0.1890257448650318  1.0000
  H   H9        1.0  0.5303926005191895  0.11932850591697841  0.5690241956369124  1.0000
  H   H10       1.0  0.4696073995813808  0.6193285047422706  0.9309758046301408  1.0000
  H   H11       1.0  0.46960739940526836  0.8806714950927166  0.43097580431686905  1.0000
  H   H12       1.0  0.5303926003849782  0.38067149458786914  0.06902419581196835  1.0000
  H   H13       1.0  0.5968846576238489  0.28807553657060825  0.5178917809971857  1.0000
  H   H14       1.0  0.4031153424348203  0.7880755370754557  0.9821082187815398  1.0000
  H   H15       1.0  0.40311534230060897  0.7119244627595316  0.4821082189565958  1.0000
  H   H16       1.0  0.5968846574896375  0.21192446225468398  0.017891781172241664  1.0000
  H   H17       1.0  0.8905819614502618  0.8316078133637037  0.5770923827979858  1.0000
  H   H18       1.0  0.10941803860840738  0.33160781285885615  0.9229076169807395  1.0000
  H   H19       1.0  0.10941803847419601  0.1683921859664361  0.4229076171557956  1.0000
  H   H20       1.0  0.8905819613160505  0.6683921864712836  0.0770923829730418  1.0000
  H   H21       1.0  0.09056999723482026  0.35021278439021697  0.5263526816278489  1.0000
  H   H22       1.0  0.9094300028238489  0.8502127848950646  0.9736473181508766  1.0000
  H   H23       1.0  0.9094300026896376  0.6497872166194781  0.4736473183259326  1.0000
  H   H24       1.0  0.09056999710060888  0.14978721611463053  0.02635268180290482  1.0000
  H   H25       1.0  0.8949933886367276  0.9596768695109502  0.6684233387645737  1.0000
  H   H26       1.0  0.1050066107470799  0.459676870685658  0.8315766615030544  1.0000
  H   H27       1.0  0.10500661132963138  0.040323129819189556  0.33157666167753536  1.0000
  H   H28       1.0  0.8949933891773779  0.5403231303240371  0.16842333845072696  1.0000
  H   H29       1.0  0.9536892067806492  0.15620225575412844  0.7210693428906303  1.0000
  H   H30       1.0  0.0463107932780201  0.656202256258976  0.7789306568880952  1.0000
  H   H31       1.0  0.04631079314380872  0.8437977452555666  0.2789306570631511  1.0000
  H   H32       1.0  0.9536892073632006  0.3437977447507191  0.22106934306511122  1.0000
  H   H33       1.0  0.022202973678414326  0.9398552499534704  0.6847273851017142  1.0000
  H   H34       1.0  0.9777970264221559  0.4398552511281782  0.8152726151653391  1.0000
  H   H35       1.0  0.9777970269628063  0.06014474937666933  0.3152726148514922  1.0000
  H   H36       1.0  0.022202973502301812  0.5601447498815169  0.18472738478844242  1.0000
  H   H37       1.0  0.03657713176988679  0.5270443830396004  0.6036797390535342  1.0000
  H   H38       1.0  0.9634228683306836  0.027044382534752914  0.896320261213519  1.0000
  H   H39       1.0  0.963422868154571  0.47295561629053934  0.39632026090024725  1.0000
  H   H40       1.0  0.03657713235243825  0.9729556167953869  0.10367973922801516  1.0000
  H   H41       1.0  0.022085832873321148  0.46397502905526034  0.6867060550944978  1.0000
  H   H42       1.0  0.9779141671853481  0.9639750278805526  0.8132939446842277  1.0000
  H   H43       1.0  0.9779141670511367  0.5360249719544348  0.31329394485928364  1.0000
  H   H44       1.0  0.022085832739109773  0.03602497144958724  0.18670605526955378  1.0000
  H   H45       1.0  0.11808846122685526  0.3368708320806779  0.6454777878457267  1.0000
  H   H46       1.0  0.8819115388737151  0.8368708325855254  0.8545222124213265  1.0000
  H   H47       1.0  0.8819115386976026  0.6631291672494619  0.35452221210805474  1.0000
  H   H48       1.0  0.11808846105074275  0.16312916674461436  0.145477787532455  1.0000
  C   C1        1.0  0.3012281105037264  0.7533879753577138  0.6415771749116603  1.0000
  C   C2        1.0  0.6987718895968439  0.25338797653242157  0.8584228253553928  1.0000
  C   C3        1.0  0.6987718894207313  0.24661202397242596  0.35842282504212103  1.0000
  C   C4        1.0  0.3012281110443768  0.7466120244772735  0.14157717459781358  1.0000
  C   C5        1.0  0.3949723030593133  0.894057933783524  0.6368822030771673  1.0000
  C   C6        1.0  0.605027697041257  0.39405793327867655  0.863117797189886  1.0000
  C   C7        1.0  0.6050276969070456  0.10594206722617097  0.36311779736494193  1.0000
  C   C8        1.0  0.39497230288320073  0.6059420660514632  0.13688220276389548  1.0000
  C   C9        1.0  0.6783754728216135  0.5617337435610702  0.6057973115957717  1.0000
  C   C10       1.0  0.32162452727895685  0.06173374305622269  0.8942026886712815  1.0000
  C   C11       1.0  0.32162452781960715  0.4382662557690695  0.39420268835743466  1.0000
  C   C12       1.0  0.678375472645501  0.9382662562739171  0.10579731128249993  1.0000
  C   C13       1.0  0.6051123764458061  0.3711029168757871  0.6160744582274272  1.0000
  C   C14       1.0  0.39488762361286317  0.8711029173806346  0.8839255415512982  1.0000
  C   C15       1.0  0.3948876234786518  0.6288970824543527  0.3839255417263542  1.0000
  C   C16       1.0  0.6051123763115946  0.12889708362906044  0.11607445840248327  1.0000
  C   C17       1.0  0.988938719065149  0.10631591944071073  0.561263854391816  1.0000
  C   C18       1.0  0.011061280993520297  0.6063159199455583  0.9387361453869094  1.0000
  C   C19       1.0  0.011061280859308926  0.893684079889429  0.4387361455619655  1.0000
  C   C20       1.0  0.9889387189309377  0.39368408106413677  0.06126385456687203  1.0000
  C   C21       1.0  0.9396359640155112  0.9070871848074924  0.5440396295693389  1.0000
  C   C22       1.0  0.060364036043157945  0.4070871843026448  0.9559603702093865  1.0000
  C   C23       1.0  0.06036403590894658  0.09291281452264746  0.45596037038444254  1.0000
  C   C24       1.0  0.9396359638813  0.592912815027495  0.04403962974439489  1.0000
  C   C25       1.0  0.04939024683336853  0.19808761721869875  0.5156200070472012  1.0000
  C   C26       1.0  0.950609752550439  0.6980876160439909  0.984379993220427  1.0000
  C   C27       1.0  0.9506097530910894  0.8019123837909964  0.4843799929065803  1.0000
  C   C28       1.0  0.049390247374018856  0.3019123832861488  0.015620006733354373  1.0000
  C   C29       1.0  0.961281332305113  0.056636702527951714  0.6767528374853996  1.0000
  C   C30       1.0  0.03871866703679332  0.556636701353244  0.8232471622939009  1.0000
  C   C31       1.0  0.03871866761934478  0.9433632984817434  0.32324716246838187  1.0000
  C   C32       1.0  0.9612813328876645  0.4433632979768958  0.1767528376598805  1.0000
  C   C33       1.0  0.042572524041390336  0.3930373128700058  0.6402800529046677  1.0000
  C   C34       1.0  0.9574274760591801  0.893037311695298  0.8597199473623856  1.0000
  C   C35       1.0  0.9574274758830674  0.6069626881396892  0.3597199470491138  1.0000
  C   C36       1.0  0.04257252386527782  0.10696268763484174  0.14028005259139592  1.0000
  N   N1        1.0  0.4326294603055156  0.9855693861471148  0.6920267641339934  1.0000
  N   N2        1.0  0.5673705397950548  0.4855693856422672  0.8079732361330597  1.0000
  N   N3        1.0  0.5673705396189423  0.01443061486258039  0.30797323581978797  1.0000
  N   N4        1.0  0.432629460129403  0.5144306136878726  0.19202676382072173  1.0000
  N   N5        1.0  0.5754307641090937  0.25410413051516423  0.5634389603047314  1.0000
  N   N6        1.0  0.42456923599147667  0.7541041310200118  0.9365610399623219  1.0000
  N   N7        1.0  0.42456923653212697  0.7458958688149756  0.4365610396484751  1.0000
  N   N8        1.0  0.5754307639329812  0.24589586998968335  0.06343895999145958  1.0000
  N   N9        1.0  0.9766728992253543  0.20960007696596572  0.6224133846631341  1.0000
  N   N10       1.0  0.023327100833314948  0.7096000774708132  0.8775866151155913  1.0000
  N   N11       1.0  0.023327100699103594  0.790399922364174  0.37758661529064746  1.0000
  N   N12       1.0  0.9766728990911429  0.2903999218593265  0.12241338483819003  1.0000
  O   O1        1.0  0.4300335892140902  0.9116433850149367  0.582698217998614  1.0000
  O   O2        1.0  0.5699664108445791  0.4116433845100891  0.9173017817801117  1.0000
  O   O3        1.0  0.5699664107103677  0.08835661599475846  0.4173017819551676  1.0000
  O   O4        1.0  0.4300335890798788  0.5883566148200507  0.08269821817366986  1.0000
  O   O5        1.0  0.5807969510222678  0.3279901615902795  0.6724234933721357  1.0000
  O   O6        1.0  0.4192030490783026  0.8279901620951271  0.8275765068949176  1.0000
  O   O7        1.0  0.41920304890219007  0.6720098377398603  0.3275765065816458  1.0000
  O   O8        1.0  0.5807969508461553  0.1720098389145681  0.1724234930588639  1.0000
  Br  Br1       1.0  0.22518919355645228  0.8384614957430484  0.7153356456306522  1.0000
  Br  Br2       1.0  0.774810806544118  0.33846149523820085  0.784664354636401  1.0000
  Br  Br3       1.0  0.7748108063680057  0.16153850526664673  0.2846643543231293  1.0000
  Br  Br4       1.0  0.22518919338033977  0.6615385040919389  0.21533564531738042  1.0000
  Br  Br5       1.0  0.22220085922361263  0.7842524661161855  0.5609330769814272  1.0000
  Br  Br6       1.0  0.7777991408769578  0.2842524656113379  0.939066923285626  1.0000
  Br  Br7       1.0  0.777799141417608  0.21574753321395437  0.43906692297177913  1.0000
  Br  Br8       1.0  0.22220085904750012  0.715747533718802  0.060933076668155534  1.0000
  Br  Br9       1.0  0.34365230790539614  0.44098512996831596  0.6559744875006678  1.0000
  Br  Br10      1.0  0.656347692153273  0.9409851304731635  0.8440255122780578  1.0000
  Br  Br11      1.0  0.6563476920190616  0.5590148693618239  0.3440255124531137  1.0000
  Br  Br12      1.0  0.34365230777118483  0.05901486885697629  0.15597448767572375  1.0000
  Br  Br13      1.0  0.6735868379392845  0.7895639808177799  0.6737573384594774  1.0000
  Br  Br14      1.0  0.32641316216128585  0.28956398031293235  0.8262426618075758  1.0000
  Br  Br15      1.0  0.32641316198517334  0.21043602019191518  0.3262426614943041  1.0000
  Br  Br16      1.0  0.6735868377631721  0.7104360190172074  0.17375733814620561  1.0000
  Br  Br17      1.0  0.6603452177164224  0.709299778021588  0.5210055725996494  1.0000
  Br  Br18      1.0  0.3396547823841479  0.20929977751674037  0.9789944276674036  1.0000
  Br  Br19      1.0  0.33965478220803547  0.29070022130855183  0.47899442735413206  1.0000
  Br  Br20      1.0  0.6603452182989739  0.7907002218133994  0.021005572774130378  1.0000
  Br  Br21      1.0  0.8084465055848968  0.41363500454560587  0.6126635245471916  1.0000
  Br  Br22      1.0  0.19155349451567347  0.9136350033708981  0.8873364757198614  1.0000
  Br  Br23      1.0  0.191553494339561  0.5863649964640892  0.3873364754065898  1.0000
  Br  Br24      1.0  0.8084465054087844  0.08636499595924167  0.11266352423391995  1.0000
