data_image0
_chemical_formula_structural       H52C56N4O12I4
_chemical_formula_sum              "H52 C56 N4 O12 I4"
_cell_length_a       9.125655368256524
_cell_length_b       9.409661077203962
_cell_length_c       18.217248248151115
_cell_angle_alpha    75.72382261333483
_cell_angle_beta     77.51793372580235
_cell_angle_gamma    64.99441991485706

_space_group_name_H-M_alt    "P 1"
_space_group_IT_number       1

loop_
  _space_group_symop_operation_xyz
  'x, y, z'

loop_
  _atom_site_type_symbol
  _atom_site_label
  _atom_site_symmetry_multiplicity
  _atom_site_fract_x
  _atom_site_fract_y
  _atom_site_fract_z
  _atom_site_occupancy
  H   H1        1.0  0.5236497848528981  0.8236017491671794  0.43363253710106126  1.0000
  H   H2        1.0  0.47635021510931647  0.17639825081816018  0.5663674630119729  1.0000
  H   H3        1.0  0.06763688405802537  0.7173341484541238  0.5231191302648754  1.0000
  H   H4        1.0  0.9323631159041893  0.2826658515312159  0.47688086984815886  1.0000
  H   H5        1.0  0.15019985200629737  0.9143674428022321  0.21986528456376842  1.0000
  H   H6        1.0  0.849800147955917  0.08563255718310762  0.7801347155492658  1.0000
  H   H7        1.0  0.2975407319961473  0.7654705885252627  0.4830827057090733  1.0000
  H   H8        1.0  0.7024592679660674  0.2345294114600769  0.5169172944039608  1.0000
  H   H9        1.0  0.9241129584943645  0.4747215942853055  0.7301868609956306  1.0000
  H   H10       1.0  0.07588704146785  0.5252784057000343  0.2698131391174037  1.0000
  H   H11       1.0  0.5697330810141382  0.6756123784310778  0.7900493066561013  1.0000
  H   H12       1.0  0.43026691909921466  0.32438762176460695  0.20995069288586019  1.0000
  H   H13       1.0  0.7393872766862406  0.5325127904204255  0.8919125303510199  1.0000
  H   H14       1.0  0.26061272342711217  0.46748720977525937  0.10808746919094163  1.0000
  H   H15       1.0  0.09641009700269665  0.334738316003631  0.8321882856086498  1.0000
  H   H16       1.0  0.9035899029595179  0.6652616839817087  0.16781171450438445  1.0000
  H   H17       1.0  0.874785402237821  0.5170180394069798  0.6160447993163629  1.0000
  H   H18       1.0  0.12521459772439353  0.4829819605783601  0.3839552007966713  1.0000
  H   H19       1.0  0.3940947385791664  0.8443857842819059  0.6946041017809741  1.0000
  H   H20       1.0  0.6059052619194448  0.15561421453135235  0.30539589833134617  1.0000
  H   H21       1.0  0.7989937466015089  0.6154392588132488  0.4855183455386833  1.0000
  H   H22       1.0  0.2010062533607056  0.384560741172091  0.514481654574351  1.0000
  H   H23       1.0  0.3368480239418498  0.924498285546556  0.5602283625665359  1.0000
  H   H24       1.0  0.6631519760203646  0.07550171443878391  0.4397716375464984  1.0000
  H   H25       1.0  0.3494153579869468  0.13244286307775047  0.032041529722044236  1.0000
  H   H26       1.0  0.6505846419752678  0.8675571369075895  0.9679584703909899  1.0000
  H   H27       1.0  0.16159670404964982  0.10699749549986069  0.07021184197391803  1.0000
  H   H28       1.0  0.8384032959125648  0.893002504485479  0.9297881581391161  1.0000
  H   H29       1.0  0.17535761357116672  0.29305965324018335  0.06720286151091537  1.0000
  H   H30       1.0  0.8246423863910478  0.7069403467451565  0.9327971386021189  1.0000
  H   H31       1.0  0.5235905010422454  0.37281264718510904  0.8007019937105896  1.0000
  H   H32       1.0  0.47640949891996914  0.6271873528002309  0.1992980064024446  1.0000
  H   H33       1.0  0.0060803445902847236  0.781220610763061  0.7760165031958772  1.0000
  H   H34       1.0  0.9939196553719297  0.21877938922227871  0.22398349691715688  1.0000
  H   H35       1.0  0.7061189904331512  0.21732054870194228  0.8970868447315768  1.0000
  H   H36       1.0  0.2938810095290633  0.7826794512833974  0.1029131553814574  1.0000
  H   H37       1.0  0.9272973284657239  0.8543885811698623  0.6451208625108518  1.0000
  H   H38       1.0  0.0727026716476288  0.14561141902582272  0.35487913703110974  1.0000
  H   H39       1.0  0.36977820530437144  0.44179304537763686  0.9647742605788882  1.0000
  H   H40       1.0  0.6302217946578432  0.5582069546077029  0.03522573953414608  1.0000
  H   H41       1.0  0.3429471380144334  0.48723932099454037  0.5704350695615817  1.0000
  H   H42       1.0  0.657052862484178  0.5127606778187179  0.4295649305507384  1.0000
  H   H43       1.0  0.44173508628197594  0.3997267800315071  0.6963238656683008  1.0000
  H   H44       1.0  0.5582649138313769  0.600273220164178  0.3036761338736607  1.0000
  H   H45       1.0  0.18870400314867275  0.5969063875136303  0.8692446746895657  1.0000
  H   H46       1.0  0.8112959968135419  0.40309361247170944  0.13075532542346854  1.0000
  H   H47       1.0  0.9783518160244659  0.970431485974361  0.09037688543166596  1.0000
  H   H48       1.0  0.021648183937748682  0.02956851401097857  0.9096231146813682  1.0000
  H   H49       1.0  0.7775237037801195  0.9881228955167023  0.1358449897029153  1.0000
  H   H50       1.0  0.2224762961820952  0.01187710446863735  0.864155010410119  1.0000
  H   H51       1.0  0.8369601892594117  0.15144738289580417  0.12461263173896292  1.0000
  H   H52       1.0  0.1630398107028029  0.8485526170895356  0.8753873683740713  1.0000
  C   C1        1.0  0.08335602836342135  0.8299205093878081  0.33808637084995036  1.0000
  C   C2        1.0  0.9166439717499316  0.17007949080787674  0.6619136286920111  1.0000
  C   C3        1.0  0.3237189787412603  0.8901409009401487  0.2904725372052142  1.0000
  C   C4        1.0  0.6762810212209543  0.10985909904519096  0.70952746290782  1.0000
  C   C5        1.0  0.18348355281644405  0.8797901258964038  0.27754906331334384  1.0000
  C   C6        1.0  0.8165164471457705  0.12020987408893596  0.7224509367996904  1.0000
  C   C7        1.0  0.3674407552192635  0.8484355430631209  0.36507387178850637  1.0000
  C   C8        1.0  0.6325592447429509  0.151564456922219  0.6349261283245279  1.0000
  C   C9        1.0  0.12293801368713392  0.7884331049038582  0.4134046102359822  1.0000
  C   C10       1.0  0.8770619862750806  0.2115668950814815  0.5865953898770521  1.0000
  C   C11       1.0  0.2657394277581557  0.7974067421225582  0.42530986544726346  1.0000
  C   C12       1.0  0.7342605722040589  0.20259325786278168  0.5746901346657707  1.0000
  C   C13       1.0  0.8185664939456553  0.5260303866017272  0.7712491717324893  1.0000
  C   C14       1.0  0.18143350616769752  0.4739696135939577  0.22875082780947226  1.0000
  C   C15       1.0  0.6720142876637656  0.6248824153625672  0.7474114289878683  1.0000
  C   C16       1.0  0.32798571229844903  0.3751175846227726  0.2525885711251661  1.0000
  C   C17       1.0  0.84394876454079  0.4832558604162957  0.8499608289738796  1.0000
  C   C18       1.0  0.15605123542142474  0.5167441395690441  0.1500391711391546  1.0000
  C   C19       1.0  0.9910264070540813  0.38509101143278057  0.8732980767317572  1.0000
  C   C20       1.0  0.008973592908133397  0.6149089885525592  0.126701923381277  1.0000
  C   C21       1.0  0.7537546957774328  0.6079953199346364  0.607290979325098  1.0000
  C   C22       1.0  0.2462453041847819  0.3920046800507033  0.3927090207879362  1.0000
  C   C23       1.0  0.4868646140396002  0.7878175681421608  0.6503189348664951  1.0000
  C   C24       1.0  0.5131353859226142  0.21218243184317923  0.3496810652465392  1.0000
  C   C25       1.0  0.01618796244755645  0.34065648978547186  0.9538779863890657  1.0000
  C   C26       1.0  0.9838120375146581  0.6593435101998679  0.04612201372396849  1.0000
  C   C27       1.0  0.6396828007221396  0.6719367755872058  0.6684187577472205  1.0000
  C   C28       1.0  0.36031719924007505  0.3280632243981341  0.33158124236581366  1.0000
  C   C29       1.0  0.7114169347907474  0.6605838815742053  0.5338050690532199  1.0000
  C   C30       1.0  0.28858306532260536  0.3394161186214797  0.46619493048874155  1.0000
  C   C31       1.0  0.4544196752498591  0.8334016274808319  0.575150559218503  1.0000
  C   C32       1.0  0.5455803247123556  0.16659837250450782  0.42484944089453114  1.0000
  C   C33       1.0  0.21658214754971733  0.19126261018472093  0.038077524268067535  1.0000
  C   C34       1.0  0.7834178524124971  0.8087373898006189  0.9619224758449666  1.0000
  C   C35       1.0  0.6453805112321198  0.22028775264437114  0.01981158556814323  1.0000
  C   C36       1.0  0.3546194887300947  0.7797122473409688  0.9801884145448908  1.0000
  C   C37       1.0  0.4277152181951377  0.4309833176251995  0.8439557768739592  1.0000
  C   C38       1.0  0.5722847817670769  0.5690166823601404  0.15604422323907513  1.0000
  C   C39       1.0  0.2332292989982805  0.5845095684942743  0.748259903383719  1.0000
  C   C40       1.0  0.766770700963934  0.41549043149106557  0.25174009672931535  1.0000
  C   C41       1.0  0.08599945907451166  0.7135345159871248  0.7319297401924406  1.0000
  C   C42       1.0  0.9140005408877029  0.2864654839982149  0.26807025992059363  1.0000
  C   C43       1.0  0.6100664909944347  0.2730212796631416  0.9406484595328136  1.0000
  C   C44       1.0  0.38993350911891816  0.7269787205325433  0.059351540009147885  1.0000
  C   C45       1.0  0.040491373071742054  0.754429611230837  0.6591260543885595  1.0000
  C   C46       1.0  0.9595086259573591  0.2455703889371754  0.3408739451552497  1.0000
  C   C47       1.0  0.46471390546009866  0.3850260843956976  0.9210056233709125  1.0000
  C   C48       1.0  0.535286094653254  0.6149739157999873  0.078994376171049  1.0000
  C   C49       1.0  0.27214268941223224  0.5500673021833149  0.6175265786621897  1.0000
  C   C50       1.0  0.7278573105499823  0.4499326978020249  0.38247342145084445  1.0000
  C   C51       1.0  0.3273445801254342  0.5020824418399276  0.6881826108344272  1.0000
  C   C52       1.0  0.6726554198367803  0.4979175581454122  0.311817389278607  1.0000
  C   C53       1.0  0.28043675995284123  0.5396962062673035  0.8244619206677316  1.0000
  C   C54       1.0  0.7195632400093732  0.4603037937180364  0.17553807944530256  1.0000
  C   C55       1.0  0.8506833335539647  0.051892757881420705  0.09899160597823779  1.0000
  C   C56       1.0  0.1493166665593879  0.9481072423142642  0.9010083935637236  1.0000
  N   N1        1.0  0.5640123125350265  0.7708155540958712  0.5173644081861065  1.0000
  N   N2        1.0  0.4359876874271882  0.22918444588946854  0.4826355919269276  1.0000
  N   N3        1.0  0.13108555558544843  0.6738687319127351  0.6025731687103849  1.0000
  N   N4        1.0  0.8689144443767661  0.3261312680726047  0.3974268314026493  1.0000
  O   O1        1.0  0.5035348258439258  0.8580111495805653  0.37587884202676414  1.0000
  O   O2        1.0  0.4964651741182887  0.14198885040477457  0.6241211580862701  1.0000
  O   O3        1.0  0.024011463610201504  0.742090677028642  0.4709218075891515  1.0000
  O   O4        1.0  0.9759885365031514  0.257909323167043  0.5290781919528099  1.0000
  O   O5        1.0  0.1743272628883101  0.24329754572775078  0.9613338692550233  1.0000
  O   O6        1.0  0.8256727370739045  0.7567024542575889  0.03866613085801092  1.0000
  O   O7        1.0  0.911890855624772  0.38261010382546506  0.00845276357158365  1.0000
  O   O8        1.0  0.08810914448858075  0.6173898963702199  0.9915472359703779  1.0000
  O   O9        1.0  0.8007316928171813  0.11009623740180535  0.02359571910444486  1.0000
  O   O10       1.0  0.1992683072961714  0.8899037627938798  0.9764042804375166  1.0000
  O   O11       1.0  0.550410030868646  0.2642062091059196  0.07679282744818577  1.0000
  O   O12       1.0  0.44958996909356863  0.7357937908794202  0.9232071726648484  1.0000
  I   I1        1.0  0.8643287420367677  0.828824936040142  0.32022199240288335  1.0000
  I   I2        1.0  0.13567125792544685  0.1711750639451978  0.6797780077101508  1.0000
  I   I3        1.0  0.46443434928828764  0.9801298123351077  0.2001079587687364  1.0000
  I   I4        1.0  0.535565650673927  0.01987018765023207  0.7998920413442978  1.0000
