data_image0
_chemical_formula_structural       H52C56N4O12Br4
_chemical_formula_sum              "H52 C56 N4 O12 Br4"
_cell_length_a       8.88835071414508
_cell_length_b       9.792900472154498
_cell_length_c       18.01338520908067
_cell_angle_alpha    91.38250162038446
_cell_angle_beta     103.21825731260888
_cell_angle_gamma    118.66443148510602

_space_group_name_H-M_alt    "P 1"
_space_group_IT_number       1

loop_
  _space_group_symop_operation_xyz
  'x, y, z'

loop_
  _atom_site_type_symbol
  _atom_site_label
  _atom_site_symmetry_multiplicity
  _atom_site_fract_x
  _atom_site_fract_y
  _atom_site_fract_z
  _atom_site_occupancy
  H   H1        1.0  0.207097615935791  0.27480756941948287  0.01948513809458873  1.0000
  H   H2        1.0  0.792902384153712  0.7251924298890332  0.9805148616560996  1.0000
  H   H3        1.0  0.6397357341057625  0.1720073399875265  0.9271385859491541  1.0000
  H   H4        1.0  0.3602642659837406  0.8279926593209898  0.07286141380153424  1.0000
  H   H5        1.0  0.9238223206485225  0.22333887648609618  0.9782429561846394  1.0000
  H   H6        1.0  0.0761776794409807  0.7766611228224202  0.02175704356604896  1.0000
  H   H7        1.0  0.9319288228723294  0.07885168561373002  0.714013641471546  1.0000
  H   H8        1.0  0.06807117703060289  0.9211483150177678  0.2859863588544706  1.0000
  H   H9        1.0  0.26157176408415067  0.6836822881720023  0.7113337501149016  1.0000
  H   H10       1.0  0.7384282369579842  0.31631771248542206  0.2886662502126368  1.0000
  H   H11       1.0  0.4077299884439785  0.601793648597698  0.01922353391828188  1.0000
  H   H12       1.0  0.5922700110963  0.39820635184822034  0.9807764658303577  1.0000
  H   H13       1.0  0.40347516130197525  0.4642928061185805  0.7740425461185422  1.0000
  H   H14       1.0  0.5965248380109794  0.5357071933495892  0.22595745420800156  1.0000
  H   H15       1.0  0.2836684756214158  0.9408203362199915  0.9426096537341476  1.0000
  H   H16       1.0  0.7163315242815166  0.05917966441150642  0.05739034659186915  1.0000
  H   H17       1.0  0.43845232672603035  0.3211739938209995  0.6707400415150825  1.0000
  H   H18       1.0  0.5615476733634729  0.6788260054875168  0.329259958235606  1.0000
  H   H19       1.0  0.2793145931212457  0.5307588323213541  0.6097249926690335  1.0000
  H   H20       1.0  0.7206854073309112  0.4692411671727416  0.3902750076590319  1.0000
  H   H21       1.0  0.3852311815447485  0.5024033920130494  0.8877051105662968  1.0000
  H   H22       1.0  0.6147688174055522  0.4975966072695406  0.11229488918287002  1.0000
  H   H23       1.0  0.26290751236348464  0.8608624177680164  0.8073159235963895  1.0000
  H   H24       1.0  0.7370924886786501  0.13913758288940783  0.19268407673114885  1.0000
  H   H25       1.0  0.27049546660296087  0.12092064149145856  0.4262212038048746  1.0000
  H   H26       1.0  0.7295045334865421  0.8790793578170576  0.5737787959458138  1.0000
  H   H27       1.0  0.46037495499037295  0.09765784908591903  0.46571084362783904  1.0000
  H   H28       1.0  0.539625046051762  0.9023421515715053  0.5342891566996993  1.0000
  H   H29       1.0  0.49110361052452356  0.2807701084836164  0.4357775448306323  1.0000
  H   H30       1.0  0.508896389015755  0.7192298919623019  0.5642224549180074  1.0000
  H   H31       1.0  0.7772267612838816  0.7778993424671211  0.7226435391315171  1.0000
  H   H32       1.0  0.22277323802907287  0.22210065700104836  0.27735646119502655  1.0000
  H   H33       1.0  0.9058626244873921  0.36912457765363693  0.6992617149199285  1.0000
  H   H34       1.0  0.09413737655474258  0.6308754230037873  0.3007382854076099  1.0000
  H   H35       1.0  0.8138166706875457  0.4453048523209498  0.5336261313073192  1.0000
  H   H36       1.0  0.18618332921538652  0.5546951483105481  0.46637386901869754  1.0000
  H   H37       1.0  0.7729028008993304  0.8518913719030646  0.8548904911444519  1.0000
  H   H38       1.0  0.22709719864094793  0.14810862854285367  0.14510950860418773  1.0000
  H   H39       1.0  0.9294130135024646  0.2110207865661803  0.5994205077551249  1.0000
  H   H40       1.0  0.07058698658703846  0.7889792127423358  0.40057949199556353  1.0000
  H   H41       1.0  0.8720379854384835  0.40879597587086935  0.8085002311477665  1.0000
  H   H42       1.0  0.1279620138744709  0.5912040235973001  0.1914997691787772  1.0000
  H   H43       1.0  0.7883666878519242  0.5998255713689635  0.6304444703964392  1.0000
  H   H44       1.0  0.2116333122375789  0.40017442793955266  0.3695555293542492  1.0000
  H   H45       1.0  0.7595487395822677  0.9944949039031339  0.3568249170329866  1.0000
  H   H46       1.0  0.24045126086988922  0.005505095590961834  0.6431750832950788  1.0000
  H   H47       1.0  0.9403242364151526  0.9617692986805345  0.4002585799492365  1.0000
  H   H48       1.0  0.05967576289780181  0.03823070078763499  0.599741420377307  1.0000
  H   H49       1.0  0.9832305198220828  0.14659341595537595  0.3668904108384363  1.0000
  H   H50       1.0  0.016769480630074083  0.8534065835387199  0.633109589489629  1.0000
  H   H51       1.0  0.8610738464783178  0.49655873847893933  0.9356362283009722  1.0000
  H   H52       1.0  0.13892615306196093  0.5034412619669791  0.06436377144766774  1.0000
  C   C1        1.0  0.777491435677404  0.10392810762630483  0.7842187427276498  1.0000
  C   C2        1.0  0.22250856500207689  0.8960718928455398  0.21578125702251147  1.0000
  C   C3        1.0  0.925812780280277  0.19270076544769316  0.9202043426386123  1.0000
  C   C4        1.0  0.07418722039920371  0.8072992350241514  0.07979565711154904  1.0000
  C   C5        1.0  0.930836263816871  0.11232604840934998  0.7719158834100893  1.0000
  C   C6        1.0  0.0691637368626098  0.8876739520624948  0.228084116340072  1.0000
  C   C7        1.0  0.7723199319848947  0.1447943430894783  0.8589629713801045  1.0000
  C   C8        1.0  0.2276800686945861  0.8552056573823663  0.1410370283700569  1.0000
  C   C9        1.0  0.08107083419504221  0.20055869086612518  0.9093744073905357  1.0000
  C   C10       1.0  0.9189291653452362  0.7994413095797932  0.09062559235810401  1.0000
  C   C11       1.0  0.08121379017159382  0.15980150904025112  0.8337530791728507  1.0000
  C   C12       1.0  0.9187862093686847  0.8401984914056673  0.16624692057578905  1.0000
  C   C13       1.0  0.3085853121216265  0.627068065551702  0.7550504924106203  1.0000
  C   C14       1.0  0.6914146871913281  0.37293193391646756  0.24494950791592351  1.0000
  C   C15       1.0  0.36181704168166345  0.3322084954760963  0.5476338503809798  1.0000
  C   C16       1.0  0.6381829572686372  0.6677915038064935  0.45236614936818687  1.0000
  C   C17       1.0  0.3726579881538759  0.6540737230117228  0.9703007610821218  1.0000
  C   C18       1.0  0.6273420117490565  0.34592627761977507  0.02969923924389491  1.0000
  C   C19       1.0  0.3526391862569993  0.5212116617050716  0.7319909965738443  1.0000
  C   C20       1.0  0.6473608138325037  0.4787883376034445  0.2680090031768441  1.0000
  C   C21       1.0  0.3045072087084426  0.8434783118656094  0.9279460704478071  1.0000
  C   C22       1.0  0.6954927902418578  0.15652168741698042  0.0720539293013594  1.0000
  C   C23       1.0  0.38273963558155555  0.3754893356930892  0.6292505694503201  1.0000
  C   C24       1.0  0.6172603650979253  0.6245106647787554  0.3707494302998412  1.0000
  C   C25       1.0  0.3348813383411159  0.4780818185546002  0.6526005900024535  1.0000
  C   C26       1.0  0.6651186617483872  0.5219181807539159  0.34739940974823486  1.0000
  C   C27       1.0  0.32175721077490516  0.6737023458261345  0.8345020460545384  1.0000
  C   C28       1.0  0.6782427899045759  0.3262976546457102  0.16549795369562303  1.0000
  C   C29       1.0  0.3625142717808533  0.6007031461842356  0.8963724509769532  1.0000
  C   C30       1.0  0.637485727759425  0.3992968542616827  0.10362754877168648  1.0000
  C   C31       1.0  0.29235531638625334  0.7980508005481429  0.8522786980795104  1.0000
  C   C32       1.0  0.707644683516679  0.201949200083355  0.14772130224650618  1.0000
  C   C33       1.0  0.40961331519239  0.17986677194034265  0.46131973327008047  1.0000
  C   C34       1.0  0.5903866854870907  0.8201332285315018  0.5386802664800808  1.0000
  C   C35       1.0  0.7988782617349636  0.7133462974695653  0.7684604614666855  1.0000
  C   C36       1.0  0.201121737805315  0.2866537029763531  0.23153953828195425  1.0000
  C   C37       1.0  0.8672973099760091  0.2213117960715923  0.47563348173755454  1.0000
  C   C38       1.0  0.13270269106612584  0.778688204585832  0.5243665185899837  1.0000
  C   C39       1.0  0.8658905108245117  0.43013794721097354  0.655800861250755  1.0000
  C   C40       1.0  0.13410948962764518  0.5698620522831223  0.3441991390773104  1.0000
  C   C41       1.0  0.8270430125836875  0.5870311277535567  0.7532157646341556  1.0000
  C   C42       1.0  0.172956986729267  0.4129688717146127  0.24678423569238803  1.0000
  C   C43       1.0  0.8541124487214519  0.3852968508347171  0.5774918787653123  1.0000
  C   C44       1.0  0.14588755081882662  0.6147031496112012  0.4225081209833274  1.0000
  C   C45       1.0  0.7948733031282532  0.7544986081436729  0.842017139138447  1.0000
  C   C46       1.0  0.20512669755122753  0.24550139232817172  0.15798286061171438  1.0000
  C   C47       1.0  0.887318148026974  0.2709915821479876  0.5562933635175773  1.0000
  C   C48       1.0  0.1126818520625291  0.7290084171605286  0.4437066362331111  1.0000
  C   C49       1.0  0.8508588947382598  0.5083897209525494  0.8155140384045978  1.0000
  C   C50       1.0  0.1491411053512433  0.49161027835596677  0.18448596134609063  1.0000
  C   C51       1.0  0.8264847173401625  0.5412951319653689  0.6758709751299752  1.0000
  C   C52       1.0  0.1735152837019723  0.45870486869205535  0.32412902519756315  1.0000
  C   C53       1.0  0.8972876810019218  0.04928492996795123  0.3930829472181765  1.0000
  C   C54       1.0  0.1027123189010105  0.9507150706635468  0.6069170531078402  1.0000
  C   C55       1.0  0.8437598144241545  0.5565532978036679  0.8868624083745786  1.0000
  C   C56       1.0  0.1562401862553264  0.44344670266817676  0.11313759137558263  1.0000
  N   N1        1.0  0.3437064440184562  0.7730517391239378  0.9865721842070602  1.0000
  N   N2        1.0  0.6562935552944982  0.2269482603442317  0.013427816119483404  1.0000
  N   N3        1.0  0.8153450268632584  0.6770534161443997  0.9006228810698935  1.0000
  N   N4        1.0  0.18465497381622253  0.3229465843274449  0.0993771186802678  1.0000
  O   O1        1.0  0.22724721438231005  0.24526876979741147  0.9680984364788571  1.0000
  O   O2        1.0  0.7727527849306445  0.7547312296707581  0.03190156384768665  1.0000
  O   O3        1.0  0.6243634164101739  0.13799362394672454  0.8691433268627313  1.0000
  O   O4        1.0  0.37563658254012666  0.8620063753358653  0.1308566728864354  1.0000
  O   O5        1.0  0.42202924332622854  0.2303976317375139  0.5393081708071259  1.0000
  O   O6        1.0  0.577970755986726  0.7696023677306556  0.46069182951941773  1.0000
  O   O7        1.0  0.2978737628914145  0.3783647369865999  0.4927707539769026  1.0000
  O   O8        1.0  0.70212623642154  0.6216352624815696  0.5072292463496411  1.0000
  O   O9        1.0  0.8159568277269581  0.27150875734536295  0.4190537265708215  1.0000
  O   O10       1.0  0.18404317122334238  0.7284912419372269  0.5809462731783452  1.0000
  O   O11       1.0  0.9105951096437757  0.1063858735731036  0.47005299587651705  1.0000
  O   O12       1.0  0.08940489139835929  0.8936141270843208  0.5299470044510214  1.0000
  Br  Br1       1.0  0.28759301637376744  0.16318942445020387  0.8183892302950792  1.0000
  Br  Br2       1.0  0.712406983529165  0.8368105761812942  0.18161077003093748  1.0000
  Br  Br3       1.0  0.5703125891547857  0.03177537477807608  0.7000372250729354  1.0000
  Br  Br4       1.0  0.42968741188734916  0.9682246258793483  0.2999627752546029  1.0000
