data_image0
_chemical_formula_structural       H120C132N12O8
_chemical_formula_sum              "H120 C132 N12 O8"
_cell_length_a       16.036182324981404
_cell_length_b       7.970671099028546
_cell_length_c       20.453431787403083
_cell_angle_alpha    90.0
_cell_angle_beta     99.90891609881406
_cell_angle_gamma    90.0

_space_group_name_H-M_alt    "P 1"
_space_group_IT_number       1

loop_
  _space_group_symop_operation_xyz
  'x, y, z'

loop_
  _atom_site_type_symbol
  _atom_site_label
  _atom_site_symmetry_multiplicity
  _atom_site_fract_x
  _atom_site_fract_y
  _atom_site_fract_z
  _atom_site_occupancy
  H   H1        1.0  0.8740534957849853  0.4155505262792349  0.035787044068102326  1.0000
  H   H2        1.0  0.6259465039094253  0.9155505263401741  0.46421295586203243  1.0000
  H   H3        1.0  0.1259465042252299  0.5844494738426437  0.9642129559928677  1.0000
  H   H4        1.0  0.3740534961007898  0.08444947378170438  0.5357870441989376  1.0000
  H   H5        1.0  0.7412197488923953  0.6129195495966986  0.8267877248537131  1.0000
  H   H6        1.0  0.7587802511207787  0.11291954953575943  0.6732122754819042  1.0000
  H   H7        1.0  0.2587802511178198  0.3870804505251798  0.17321227520725704  1.0000
  H   H8        1.0  0.24121974888943643  0.8870804505861192  0.32678772457906585  1.0000
  H   H9        1.0  0.6098639649007935  0.6261669322434208  0.8592301512001992  1.0000
  H   H10       1.0  0.8901360351166777  0.1261669321824815  0.6407698486470937  1.0000
  H   H11       1.0  0.39013603510942163  0.3738330678784577  0.1407698488607709  1.0000
  H   H12       1.0  0.1098639648935373  0.873833067939397  0.3592301514138764  1.0000
  H   H13       1.0  0.7490964363318573  0.3706616761993956  0.07052190722508817  1.0000
  H   H14       1.0  0.7509035633625533  0.870661676260335  0.4294780927050466  1.0000
  H   H15       1.0  0.25090356368265515  0.6293383239224828  0.9294780923475574  1.0000
  H   H16       1.0  0.24909643664766196  0.12933832386154362  0.5705219073559236  1.0000
  H   H17       1.0  0.593284298361811  0.392998243320036  0.04664177807644906  1.0000
  H   H18       1.0  0.906715701965618  0.8929982433809753  0.45335822194241054  1.0000
  H   H19       1.0  0.4067157016484041  0.6070017568018424  0.9533582219845209  1.0000
  H   H20       1.0  0.09328429804459712  0.10700175674090319  0.5466417781185596  1.0000
  H   H21       1.0  0.522366744879718  0.5228505239048096  0.9384239048011788  1.0000
  H   H22       1.0  0.977633255133456  0.02285052384387034  0.5615760955344385  1.0000
  H   H23       1.0  0.47763325513049715  0.4771494762170689  0.06157609525979131  1.0000
  H   H24       1.0  0.022366744876759083  0.9771494762780082  0.43842390452653157  1.0000
  H   H25       1.0  0.022600406157542344  0.27752954707535316  0.34899371378521926  1.0000
  H   H26       1.0  0.4773995938454166  0.7775295471362924  0.15100628648942804  1.0000
  H   H27       1.0  0.9773995938526728  0.7224704530465254  0.651006286275751  1.0000
  H   H28       1.0  0.5226004061647986  0.2224704529855861  0.8489937135715421  1.0000
  H   H29       1.0  0.5218183952156439  0.7542710915185974  0.5361834554119251  1.0000
  H   H30       1.0  0.9781816048018275  0.25427109145765814  0.9638165444353679  1.0000
  H   H31       1.0  0.47818160479457134  0.24572890860328112  0.463816544649045  1.0000
  H   H32       1.0  0.021818395212684916  0.7457289086642204  0.036183455137277894  1.0000
  H   H33       1.0  0.3884888428756074  0.6879375289576682  0.4591546031535311  1.0000
  H   H34       1.0  0.11151115713164882  0.187937528896729  0.04084539663279177  1.0000
  H   H35       1.0  0.6115111571346078  0.31206247116421026  0.540845396907439  1.0000
  H   H36       1.0  0.8884888428828637  0.8120624712251495  0.959154602939854  1.0000
  H   H37       1.0  0.6461145178622314  0.8454657288294496  0.6107281217488835  1.0000
  H   H38       1.0  0.85388548215524  0.34546572876851034  0.8892718780984096  1.0000
  H   H39       1.0  0.3538854821479837  0.15453427129242892  0.3892718783120867  1.0000
  H   H40       1.0  0.1461145178592725  0.6545342713533682  0.11072812147423612  1.0000
  H   H41       1.0  0.15040117661734043  0.3436493810833368  0.43612389884626507  1.0000
  H   H42       1.0  0.3495988233899158  0.8436493811442761  0.06387610094005776  1.0000
  H   H43       1.0  0.8495988233928747  0.6563506190385416  0.5638761012147051  1.0000
  H   H44       1.0  0.6504011766202994  0.15635061897760244  0.9361238991209123  1.0000
  H   H45       1.0  0.4112223735883466  0.4922890495981243  0.5923835077874877  1.0000
  H   H46       1.0  0.08877762610895201  0.9922890496590636  0.9076164918272684  1.0000
  H   H47       1.0  0.5887776264218686  0.5077109505237541  0.4076164922734824  1.0000
  H   H48       1.0  0.9112223739055605  0.00771095046281496  0.09238350774537722  1.0000
  H   H49       1.0  0.1499623548799597  0.5170301959269491  0.2999311507173864  1.0000
  H   H50       1.0  0.3500376451272965  0.017030197120609335  0.20006884906893646  1.0000
  H   H51       1.0  0.8500376451302555  0.48296980294032993  0.7000688493435838  1.0000
  H   H52       1.0  0.6499623548829186  0.9829698030012691  0.7999311509920337  1.0000
  H   H53       1.0  0.7456689587914005  0.8190235663839702  0.7174466380656304  1.0000
  H   H54       1.0  0.7543310412260709  0.31902356632303097  0.7825533617816626  1.0000
  H   H55       1.0  0.2543310412188146  0.18097643373790825  0.2825533619953397  1.0000
  H   H56       1.0  0.24566895878414427  0.680976432544248  0.2174466382793076  1.0000
  H   H57       1.0  0.02980340585610091  0.44637675370065566  0.08658213382824796  1.0000
  H   H58       1.0  0.4701965941511553  0.9463767537615949  0.41341786595807484  1.0000
  H   H59       1.0  0.9701965941584114  0.5536232464212228  0.9134178657443978  1.0000
  H   H60       1.0  0.5298034058590598  0.05362324636028358  0.5865821341028953  1.0000
  H   H61       1.0  0.11175623171743655  0.442228974976725  0.19924655422262974  1.0000
  H   H62       1.0  0.3882437682855224  0.9422289750376642  0.3007534460520176  1.0000
  H   H63       1.0  0.8882437682927786  0.5577710251451535  0.8007534458383404  1.0000
  H   H64       1.0  0.6117562317246928  0.057771025084214285  0.6992465540089526  1.0000
  H   H65       1.0  0.28111627099608727  0.42228524903131814  0.5173993503191531  1.0000
  H   H66       1.0  0.2188837293342298  0.9222852490922574  0.9826006493843281  1.0000
  H   H67       1.0  0.7188837290141279  0.5777147510905604  0.4826006497418171  1.0000
  H   H68       1.0  0.7811162706802826  0.07771475102962111  0.01739935018831772  1.0000
  H   H69       1.0  0.8894354936606079  0.24992124693776246  0.2674490331151159  1.0000
  H   H70       1.0  0.610564506666821  0.7499212469987018  0.23255096690374366  1.0000
  H   H71       1.0  0.11056450634960723  0.750078753184116  0.7325509669458542  1.0000
  H   H72       1.0  0.389435493343394  0.2500787531231768  0.7674490331572265  1.0000
  H   H73       1.0  0.26454533697468774  0.6042321932700225  0.3816475452752511  1.0000
  H   H74       1.0  0.2354546630282712  0.10423219320908332  0.11835245499939621  1.0000
  H   H75       1.0  0.7354546630355274  0.3957678068518559  0.6183524547857191  1.0000
  H   H76       1.0  0.7645453369819439  0.8957678056581957  0.881647545061574  1.0000
  H   H77       1.0  0.8161855750886478  0.25805697844572845  0.15075011277536338  1.0000
  H   H78       1.0  0.6838144252387813  0.7580569785066676  0.3492498872434962  1.0000
  H   H79       1.0  0.18381442492156755  0.7419430216761501  0.8492498872856067  1.0000
  H   H80       1.0  0.3161855747714337  0.24194302161521083  0.650750112817474  1.0000
  H   H81       1.0  0.5034767397731041  0.43527969563602414  0.6744788123966851  1.0000
  H   H82       1.0  0.9965232602400699  0.9352796944423639  0.8255211879389325  1.0000
  H   H83       1.0  0.4965232602371111  0.5647203044858543  0.32552118766428517  1.0000
  H   H84       1.0  0.0034767397701451867  0.06472030442491508  0.17447881212203767  1.0000
  H   H85       1.0  0.6094469991445531  0.4225462759855295  0.7770566867244364  1.0000
  H   H86       1.0  0.8905530008686209  0.9225462760464688  0.722943313611181  1.0000
  H   H87       1.0  0.390553000865662  0.577453724136349  0.22294331333653378  1.0000
  H   H88       1.0  0.10944699914159421  0.07745372407540975  0.2770566864497891  1.0000
  H   H89       1.0  0.24751659011621044  0.7380892784193567  0.5891188730755059  1.0000
  H   H90       1.0  0.2524834095767908  0.23808927835841737  0.9108811270275748  1.0000
  H   H91       1.0  0.7524834098940046  0.2619107217025219  0.41088112698546436  1.0000
  H   H92       1.0  0.7475165904334244  0.7619107205088617  0.0891188730333953  1.0000
  H   H93       1.0  0.13660881117016913  0.4773033679013149  0.6458209544676462  1.0000
  H   H94       1.0  0.3633911885228321  0.9773033679622541  0.8541790456354346  1.0000
  H   H95       1.0  0.8633911888400461  0.5226966322205636  0.35417904559332397  1.0000
  H   H96       1.0  0.636608811487383  0.02269663215962439  0.1458209544255356  1.0000
  H   H97       1.0  0.3776765350910924  0.8203883485792017  0.6583258336900498  1.0000
  H   H98       1.0  0.12232346460620623  0.3203883485182625  0.8416741659247065  1.0000
  H   H99       1.0  0.6223234649234202  0.1796116515426768  0.34167416588259586  1.0000
  H   H100      1.0  0.8776765354040089  0.679611651603616  0.15832583413626375  1.0000
  H   H101      1.0  0.21906518164689875  0.4668341741579963  0.7408739376579236  1.0000
  H   H102      1.0  0.2809348180461025  0.9668341742189355  0.7591260624451569  1.0000
  H   H103      1.0  0.7809348183633165  0.5331658259638823  0.2591260624030464  1.0000
  H   H104      1.0  0.7190651819641126  0.03316582590294298  0.2408739376158132  1.0000
  H   H105      1.0  0.11935273676541855  0.6698179066315629  0.5119119909843923  1.0000
  H   H106      1.0  0.3806472635648985  0.16981790657062368  0.9880880087190888  1.0000
  H   H107      1.0  0.8806472632490939  0.3301820934903156  0.48808800858825335  1.0000
  H   H108      1.0  0.6193527364453167  0.8301820935512548  0.011911991341881456  1.0000
  H   H109      1.0  0.00918957738338372  0.40406974644738947  0.5672494212491632  1.0000
  H   H110      1.0  0.4908104223096175  0.9040697465083287  0.9327505788539174  1.0000
  H   H111      1.0  0.9908104226268315  0.595930253674489  0.4327505788118069  1.0000
  H   H112      1.0  0.5091895777005976  0.09593025361354979  0.06724942120705268  1.0000
  H   H113      1.0  0.3228780849023786  0.47587274683336117  0.8447911021163553  1.0000
  H   H114      1.0  0.17712191479062261  0.9758727468943005  0.6552088979867253  1.0000
  H   H115      1.0  0.6771219151078365  0.5241272532885173  0.15520889794461482  1.0000
  H   H116      1.0  0.8228780852195926  0.0241272532275781  0.3447911020742448  1.0000
  H   H117      1.0  0.4754966408712577  0.8128533117857102  0.7665309362645167  1.0000
  H   H118      1.0  0.024503359454761987  0.31285331297937036  0.7334690639272887  1.0000
  H   H119      1.0  0.5245033591389573  0.18714668708156887  0.23346906379645335  1.0000
  H   H120      1.0  0.9754966405554533  0.6871466871425082  0.2665309361336814  1.0000
  C   C1        1.0  0.7685937012596696  0.48013937376821797  0.9784540606245746  1.0000
  C   C2        1.0  0.7314062987535044  0.9801393738291573  0.5215459397110426  1.0000
  C   C3        1.0  0.2314062987505455  0.5198606263536605  0.021545939436395364  1.0000
  C   C4        1.0  0.2685937012567107  0.019860626292721284  0.47845406034992743  1.0000
  C   C5        1.0  0.7285190008661578  0.5500073789940104  0.9172998248177603  1.0000
  C   C6        1.0  0.7714809991513136  0.05000737893307124  0.5827001750295329  1.0000
  C   C7        1.0  0.27148099914405727  0.44999262112786803  0.08270017524321004  1.0000
  C   C8        1.0  0.22851900085890162  0.9499926211888073  0.41729982503143725  1.0000
  C   C9        1.0  0.6402894098005946  0.5671844683882381  0.9051535843332904  1.0000
  C   C10       1.0  0.8597105902168769  0.06718446832729888  0.5948464155140026  1.0000
  C   C11       1.0  0.35971059020962065  0.4328155317336404  0.09484641572767978  1.0000
  C   C12       1.0  0.14028940979333826  0.9328155317945797  0.40515358454696754  1.0000
  C   C13       1.0  0.7183108978360658  0.42598207074606576  0.02395711232763912  1.0000
  C   C14       1.0  0.7816891024913633  0.9259820695524056  0.4760428876912205  1.0000
  C   C15       1.0  0.2816891021741493  0.5740179293758128  0.9760428877333311  1.0000
  C   C16       1.0  0.21831089751885197  0.0740179293148735  0.5239571123697496  1.0000
  C   C17       1.0  0.6300947491841641  0.43896674025684435  0.010286588139337458  1.0000
  C   C18       1.0  0.8699052505059492  0.9389667403177836  0.4897134122791218  1.0000
  C   C19       1.0  0.3699052508260511  0.5610332598650342  0.9897134119216326  1.0000
  C   C20       1.0  0.13009474950426594  0.06103325980409491  0.5102865877818484  1.0000
  C   C21       1.0  0.5908919894707034  0.5102472601705622  0.9506201127727442  1.0000
  C   C22       1.0  0.9091080105424707  0.010247261364222486  0.5493798875628731  1.0000
  C   C23       1.0  0.40910801053951174  0.48975273869671676  0.04937988728822591  1.0000
  C   C24       1.0  0.09089198946774447  0.989752738757656  0.4506201124980969  1.0000
  C   C25       1.0  0.5644216988120067  0.6445667304759528  0.632873116640952  1.0000
  C   C26       1.0  0.9355783012054647  0.14456673041501358  0.8671268832063409  1.0000
  C   C27       1.0  0.4355783011982085  0.35543326964592564  0.3671268834200181  1.0000
  C   C28       1.0  0.06442169880475039  0.855433269706865  0.13287311685462921  1.0000
  C   C29       1.0  0.050734152258187615  0.35163374767045597  0.3133919318158139  1.0000
  C   C30       1.0  0.4492658477490687  0.8516337477313953  0.186608067970509  1.0000
  C   C31       1.0  0.9492658477520275  0.6483662524514224  0.6866080682451563  1.0000
  C   C32       1.0  0.5507341522611465  0.1483662523904833  0.8133919320904611  1.0000
  C   C33       1.0  0.5044138716805892  0.6646675699171295  0.5719637707861015  1.0000
  C   C34       1.0  0.9955861283325849  0.16466756985619027  0.9280362295495158  1.0000
  C   C35       1.0  0.495586128329626  0.33533243020474895  0.4280362292748685  1.0000
  C   C36       1.0  0.004413871677630243  0.8353324302656883  0.07196377051145433  1.0000
  C   C37       1.0  0.00676237514462799  0.35376294103311634  0.24545438703978648  1.0000
  C   C38       1.0  0.49323762485833095  0.8537629410940556  0.2545456132348608  1.0000
  C   C39       1.0  0.9932376248655872  0.6462370590887623  0.7545456130211836  1.0000
  C   C40       1.0  0.5067623751518843  0.14623705902782294  0.7454543868261093  1.0000
  C   C41       1.0  0.3722675624876981  0.5992098206865046  0.4957447120322162  1.0000
  C   C42       1.0  0.12773243751955815  0.09920982062556535  0.004255287754106555  1.0000
  C   C43       1.0  0.6277324375268143  0.40079017943537393  0.5042552875404294  1.0000
  C   C44       1.0  0.872267562490657  0.9007901794963131  0.9957447123068637  1.0000
  C   C45       1.0  0.6356218964014946  0.750066508292966  0.6463819089795109  1.0000
  C   C46       1.0  0.8643781036116794  0.2500665082320268  0.8536180913561067  1.0000
  C   C47       1.0  0.3643781036087206  0.24993349182891247  0.35361809108145925  1.0000
  C   C48       1.0  0.13562189639853564  0.7499334918898518  0.1463819087048636  1.0000
  C   C49       1.0  0.17173126989691806  0.4284413693115766  0.4003495230471318  1.0000
  C   C50       1.0  0.32826873010604085  0.928441369372516  0.09965047722751552  1.0000
  C   C51       1.0  0.8282687301132969  0.5715586308103018  0.5996504770138383  1.0000
  C   C52       1.0  0.6717312699041743  0.07155863074936261  0.9003495228334546  1.0000
  C   C53       1.0  0.4293348609955402  0.5815043077821772  0.5567715828453841  1.0000
  C   C54       1.0  0.0706651393304795  0.08150430772123789  0.9432284173464214  1.0000
  C   C55       1.0  0.570665139014675  0.4184956923397014  0.4432284172155861  1.0000
  C   C56       1.0  0.9293348606797356  0.9184956924006407  0.056771582714548734  1.0000
  C   C57       1.0  0.12418030754772755  0.4366587489006031  0.3350167598549445  1.0000
  C   C58       1.0  0.3758196924552314  0.9366587489615423  0.1649832404197028  1.0000
  C   C59       1.0  0.8758196924624876  0.5633412512212754  0.6649832402060256  1.0000
  C   C60       1.0  0.6241803075549839  0.06334125116033618  0.8350167596412674  1.0000
  C   C61       1.0  0.6914445591493934  0.7350637527515194  0.7059442700521782  1.0000
  C   C62       1.0  0.808555440868078  0.23506375269058002  0.7940557297951147  1.0000
  C   C63       1.0  0.308555440865119  0.26493624737035926  0.2940557295204675  1.0000
  C   C64       1.0  0.1914445591421372  0.7649362474312985  0.20594427026585535  1.0000
  C   C65       1.0  0.9997503000309809  0.406368239230793  0.1279998503922494  1.0000
  C   C66       1.0  0.5002497002964482  0.9063682392917323  0.3720001496266102  1.0000
  C   C67       1.0  0.00024969997923436816  0.5936317608910856  0.8720001496687207  1.0000
  C   C68       1.0  0.49975029971806423  0.09363176083014628  0.6279998499460355  1.0000
  C   C69       1.0  0.04549575609254413  0.40596846862673575  0.19194570867089245  1.0000
  C   C70       1.0  0.4545042439147121  0.905968468687675  0.30805429111543037  1.0000
  C   C71       1.0  0.954504243917671  0.5940315314951428  0.8080542913900778  1.0000
  C   C72       1.0  0.5454957560998004  0.0940315314342035  0.6919457084572154  1.0000
  C   C73       1.0  0.29868506688128793  0.5090515101663798  0.4806217721049287  1.0000
  C   C74       1.0  0.2013149331259683  0.009051510105440572  0.019378227681394234  1.0000
  C   C75       1.0  0.7013149331289271  0.49094848995549867  0.5193782279560415  1.0000
  C   C76       1.0  0.7986850668842469  0.9909484900164379  0.9806217723795759  1.0000
  C   C77       1.0  0.9224938973798825  0.29713763127030235  0.2289805730042888  1.0000
  C   C78       1.0  0.577506102314528  0.7971376313312416  0.27101942692584596  1.0000
  C   C79       1.0  0.07750610263033257  0.7028623688515762  0.7710194270566814  1.0000
  C   C80       1.0  0.4224938976956872  0.20286236879063688  0.7289805731351242  1.0000
  C   C81       1.0  0.2447295079033702  0.5190200722877907  0.41802309607950805  1.0000
  C   C82       1.0  0.2552704920995887  0.019020072226851405  0.08197690419513928  1.0000
  C   C83       1.0  0.755270492106845  0.48097992783408783  0.5819769039814622  1.0000
  C   C84       1.0  0.7447295079106264  0.9809799278950271  0.9180230958658309  1.0000
  C   C85       1.0  0.8815576910184806  0.30144460110678  0.1634323442226275  1.0000
  C   C86       1.0  0.61844230867593  0.8014446011677192  0.3365676557075073  1.0000
  C   C87       1.0  0.11844230899173455  0.6985553990150986  0.8365676558383427  1.0000
  C   C88       1.0  0.38155769133428513  0.19855539895415925  0.6634323443534628  1.0000
  C   C89       1.0  0.5560595532883882  0.5231069439696456  0.6813340358232827  1.0000
  C   C90       1.0  0.9439404467290832  0.023106943908706424  0.8186659640240104  1.0000
  C   C91       1.0  0.4439404467218269  0.4768930561522328  0.31866596423768745  1.0000
  C   C92       1.0  0.05605955328113197  0.9768930562131721  0.18133403603695988  1.0000
  C   C93       1.0  0.6155084161401542  0.5153353173110636  0.7389480610316758  1.0000
  C   C94       1.0  0.8844915838773171  0.01533531725012434  0.7610519388156174  1.0000
  C   C95       1.0  0.3844915838700609  0.48466468281081493  0.26105193902929447  1.0000
  C   C96       1.0  0.11550841613719537  0.9846646828717541  0.2389480607570284  1.0000
  C   C97       1.0  0.2882161269501667  0.6451307670475469  0.6890789467873181  1.0000
  C   C98       1.0  0.21178387337585305  0.14513076698660765  0.8109210534044875  1.0000
  C   C99       1.0  0.7117838730600485  0.3548692330743316  0.3109210532736521  1.0000
  C   C100      1.0  0.788216126634362  0.8548692318806713  0.1890789466564827  1.0000
  C   C101      1.0  0.22999020201357348  0.6529742872760531  0.6265230799460952  1.0000
  C   C102      1.0  0.27000979831244626  0.15297428721511383  0.8734769202457102  1.0000
  C   C103      1.0  0.7700097979966417  0.34702571284582545  0.3734769201148748  1.0000
  C   C104      1.0  0.7299902016977688  0.8470257129067646  0.1265230798152599  1.0000
  C   C105      1.0  0.1560871426638071  0.5655360852299366  0.6103235752893692  1.0000
  C   C106      1.0  0.3439128570334915  0.06553608516899728  0.8896764243253871  1.0000
  C   C107      1.0  0.8439128573464081  0.43446391489194197  0.389676424771601  1.0000
  C   C108      1.0  0.6560871429767235  0.9344639149528812  0.11032357573558305  1.0000
  C   C109      1.0  0.36296333126797403  0.742014226470947  0.6985216264694052  1.0000
  C   C110      1.0  0.13703666905804565  0.24201422766460728  0.8014783737224004  1.0000
  C   C111      1.0  0.6370366687422412  0.257985772396332  0.301478373591565  1.0000
  C   C112      1.0  0.8629633309521695  0.7579857724572712  0.19852162633856985  1.0000
  C   C113      1.0  0.2747822144884847  0.5465417573848882  0.7436416185170854  1.0000
  C   C114      1.0  0.22521778583753502  0.04654175732394894  0.75635838167472  1.0000
  C   C115      1.0  0.7252177855217304  0.4534582427369903  0.25635838154388474  1.0000
  C   C116      1.0  0.7747822141726801  0.9534582427979296  0.2436416183862501  1.0000
  C   C117      1.0  0.10115009907596995  0.5814776763985254  0.5479182277696083  1.0000
  C   C118      1.0  0.3988499012543471  0.08147767633758615  0.9520817719338727  1.0000
  C   C119      1.0  0.8988499009342452  0.41852232372335313  0.45208177229136176  1.0000
  C   C120      1.0  0.601150098755868  0.9185223237842923  0.04791822812709743  1.0000
  C   C121      1.0  0.02743726400459963  0.49241610916279804  0.5311851636502297  1.0000
  C   C122      1.0  0.4725627356884016  0.9924161092237374  0.9688148364528508  1.0000
  C   C123      1.0  0.9725627360056155  0.5075838909590804  0.4688148364107404  1.0000
  C   C124      1.0  0.5274372643218136  0.007583890898141237  0.03118516360811922  1.0000
  C   C125      1.0  0.33316160453612775  0.5517513162142647  0.8023619609716913  1.0000
  C   C126      1.0  0.16683839578989193  0.051751316153325407  0.6976380392201141  1.0000
  C   C127      1.0  0.6668383954740873  0.44824868390761385  0.1976380390892787  1.0000
  C   C128      1.0  0.8331616042203233  0.9482486839685531  0.3023619608408561  1.0000
  C   C129      1.0  0.41776757361830635  0.7375188484086949  0.7592498806554796  1.0000
  C   C130      1.0  0.08223242670771334  0.23751884834775563  0.7407501195363259  1.0000
  C   C131      1.0  0.5822324263919089  0.2624811517131836  0.24075011940549054  1.0000
  C   C132      1.0  0.9177675733025017  0.7624811517741229  0.25924988052464426  1.0000
  N   N1        1.0  0.9182056094066099  0.3569569418498233  0.11299675381555077  1.0000
  N   N2        1.0  0.5817943902878008  0.8569569419107625  0.38700324611458403  1.0000
  N   N3        1.0  0.08179439060360527  0.6430430582720552  0.8870032462454194  1.0000
  N   N4        1.0  0.41820560972241444  0.14304305821111596  0.6129967539463862  1.0000
  N   N5        1.0  0.6823503297564851  0.6202068669729079  0.752347255465774  1.0000
  N   N6        1.0  0.8176496702609861  0.12020686691196873  0.747652744381519  1.0000
  N   N7        1.0  0.31764967025373  0.3797931331489705  0.24765274459519615  1.0000
  N   N8        1.0  0.18235032974922893  0.8797931332099098  0.25234725567945115  1.0000
  N   N9        1.0  0.4041610126841143  0.6454844486842592  0.8115233789182825  1.0000
  N   N10       1.0  0.09583898764190539  0.14548444862332  0.688476621273523  1.0000
  N   N11       1.0  0.5958389873261009  0.35451555143761926  0.18847662114268762  1.0000
  N   N12       1.0  0.9041610123683097  0.8545155514985585  0.3115233787874471  1.0000
  O   O1        1.0  0.854545675487352  0.46627552985506643  0.9898772358372154  1.0000
  O   O2        1.0  0.6454543245301193  0.9662755299160056  0.5101227640100775  1.0000
  O   O3        1.0  0.14545432452286308  0.5337244702668121  0.010122764223754695  1.0000
  O   O4        1.0  0.3545456754800958  0.033724470205872846  0.48987723605089256  1.0000
  O   O5        1.0  0.7781564395080013  0.5981130886935027  0.8727772338019401  1.0000
  O   O6        1.0  0.7218435605051728  0.09811308863256349  0.6272227665336775  1.0000
  O   O7        1.0  0.2218435605022139  0.4018869114283758  0.12722276625903015  1.0000
  O   O8        1.0  0.2781564395050423  0.9018869114893151  0.3727772335272927  1.0000
