data_image0
_chemical_formula_structural       H32C60N4F16I8
_chemical_formula_sum              "H32 C60 N4 F16 I8"
_cell_length_a       16.192545624638676
_cell_length_b       4.106296854024742
_cell_length_c       23.822348860086908
_cell_angle_alpha    90.0
_cell_angle_beta     105.20030182777629
_cell_angle_gamma    90.0

_space_group_name_H-M_alt    "P 1"
_space_group_IT_number       1

loop_
  _space_group_symop_operation_xyz
  'x, y, z'

loop_
  _atom_site_type_symbol
  _atom_site_label
  _atom_site_symmetry_multiplicity
  _atom_site_fract_x
  _atom_site_fract_y
  _atom_site_fract_z
  _atom_site_occupancy
  H   H1        1.0  0.05435139001324379  0.2713229996774332  0.0874260617605949  1.0000
  H   H2        1.0  0.4456486100014568  0.7713230004050058  0.41257393832057226  1.0000
  H   H3        1.0  0.9456486098447969  0.7286769993424277  0.9125739379667546  1.0000
  H   H4        1.0  0.5543513900279444  0.22867699861485516  0.587426061841762  1.0000
  H   H5        1.0  0.07372698087701221  0.7676071657874854  0.9952114143212112  1.0000
  H   H6        1.0  0.42627301875666523  0.26760716505991283  0.5047885855656755  1.0000
  H   H7        1.0  0.9262730191523889  0.23239283566765973  0.004788585841123115  1.0000
  H   H8        1.0  0.5737269811013754  0.7323928363952322  0.49521141416167397  1.0000
  H   H9        1.0  0.18759438858385627  0.3041311196914443  0.16911422931169734  1.0000
  H   H10       1.0  0.3124056112594839  0.8041311204190169  0.330885770334485  1.0000
  H   H11       1.0  0.8124056112741845  0.6958688793284166  0.8308857704156521  1.0000
  H   H12       1.0  0.6875943885985568  0.19586887860084404  0.6691142293928645  1.0000
  H   H13       1.0  0.1995103542427813  0.8056052807671823  0.07481264297804846  1.0000
  H   H14       1.0  0.3004896457719193  0.3056052800396098  0.42518735710311867  1.0000
  H   H15       1.0  0.8004896457866199  0.19439472068796276  0.9251873571842857  1.0000
  H   H16       1.0  0.6995103542574819  0.6943947189802511  0.5748126430592156  1.0000
  H   H17       1.0  0.3043263175620359  0.29171656667391593  0.2565420585328621  1.0000
  H   H18       1.0  0.19567368228130433  0.7917165674014884  0.24345794111332028  1.0000
  H   H19       1.0  0.6956736822960049  0.7082834323459449  0.7434579411944875  1.0000
  H   H20       1.0  0.8043263175767363  0.20828343405365662  0.7565420586140292  1.0000
  H   H21       1.0  0.4526730624792281  0.121291625448811  0.3081989017987355  1.0000
  H   H22       1.0  0.04732693753547245  0.6212916237410994  0.1918010982824316  1.0000
  H   H23       1.0  0.547326937550173  0.8787083760063341  0.6918010983635987  1.0000
  H   H24       1.0  0.9526730624939286  0.3787083752787616  0.8081989018799025  1.0000
  H   H25       1.0  0.3365051438729015  0.7664502913166726  0.10588312162219707  1.0000
  H   H26       1.0  0.16349485614179907  0.2664502905891001  0.39411687845897003  1.0000
  H   H27       1.0  0.6634948559851391  0.23354970770318825  0.8941168781051524  1.0000
  H   H28       1.0  0.8365051438876021  0.7335497084307608  0.6058831217033642  1.0000
  H   H29       1.0  0.48243556803445536  0.6230458393412062  0.16372362627021184  1.0000
  H   H30       1.0  0.017564431808884794  0.12304584104891789  0.33627637337597055  1.0000
  H   H31       1.0  0.5175644318235855  0.3769541596786547  0.8362763734571378  1.0000
  H   H32       1.0  0.9824355680491559  0.8769541604062273  0.663723626351379  1.0000
  C   C1        1.0  0.7216556795732559  0.4561163175926381  0.3807296368074861  1.0000
  C   C2        1.0  0.7783443206805084  0.9561163158849264  0.11927036319531095  1.0000
  C   C3        1.0  0.2783443202847848  0.543883683862507  0.6192703629198635  1.0000
  C   C4        1.0  0.22165567934889266  0.04388368313493446  0.8807296369670232  1.0000
  C   C5        1.0  0.8078164786655865  0.5051701262091708  0.38131625521078805  1.0000
  C   C6        1.0  0.692183521588178  0.005170125481598238  0.11868374479200906  1.0000
  C   C7        1.0  0.19218352136381464  0.4948298752459744  0.6186837449515463  1.0000
  C   C8        1.0  0.3078164784412233  0.9948298735382627  0.8813162553703252  1.0000
  C   C9        1.0  0.8729708397628392  0.38322694289810305  0.4272378544093655  1.0000
  C   C10       1.0  0.6270291604909254  0.8832269411903914  0.07276214559343169  1.0000
  C   C11       1.0  0.12702916026656202  0.6167730585570421  0.5727621457529688  1.0000
  C   C12       1.0  0.37297083936711545  0.11677305782946952  0.9272378541339179  1.0000
  C   C13       1.0  0.7035886454024043  0.2841337685697114  0.42650844570590823  1.0000
  C   C14       1.0  0.7964113548513602  0.7841337668619998  0.07349155429688888  1.0000
  C   C15       1.0  0.29641135445563643  0.7158662328854337  0.5734915540214413  1.0000
  C   C16       1.0  0.20358864517804098  0.2158662321578612  0.9265084458654453  1.0000
  C   C17       1.0  0.8538378954632742  0.21181417732804741  0.47282346631687044  1.0000
  C   C18       1.0  0.6461621047904903  0.71181417805562  0.027176533685926686  1.0000
  C   C19       1.0  0.14616210456612713  0.7881858216918135  0.5271765338454639  1.0000
  C   C20       1.0  0.3538378952389108  0.28818582096424095  0.9728234664764076  1.0000
  C   C21       1.0  0.7684987826786955  0.16235512280281503  0.4720948857463157  1.0000
  C   C22       1.0  0.7315012175750689  0.6623551235303876  0.027905114256481477  1.0000
  C   C23       1.0  0.23150121735070564  0.8376448762170459  0.5279051144160186  1.0000
  C   C24       1.0  0.26849878245433223  0.3376448779247575  0.9720948859058528  1.0000
  C   C25       1.0  0.3052477286692696  0.03628726692127802  0.17669602581823873  1.0000
  C   C26       1.0  0.19475227117407057  0.5362872676488505  0.3233039738279436  1.0000
  C   C27       1.0  0.694752271805359  0.9637127320985829  0.8233039739065962  1.0000
  C   C28       1.0  0.8052477286839701  0.4637127313710103  0.6766960258994059  1.0000
  C   C29       1.0  0.08566957083305393  0.08469949747035613  0.06744536795679412  1.0000
  C   C30       1.0  0.4143304290102862  0.5846994981979287  0.43255463168938824  1.0000
  C   C31       1.0  0.9143304290249868  0.9153005015495048  0.9325546317705553  1.0000
  C   C32       1.0  0.5856695708477545  0.4153005008219322  0.5674453680379613  1.0000
  C   C33       1.0  0.042129132257494144  0.9532064629383991  0.015232171149763305  1.0000
  C   C34       1.0  0.457870867585846  0.45320646464611075  0.4847678284964191  1.0000
  C   C35       1.0  0.9578708676005467  0.046793536081461834  0.9847678285775863  1.0000
  C   C36       1.0  0.5421291322721947  0.5467935368090344  0.5152321712309305  1.0000
  C   C37       1.0  0.21784706502260034  0.12338540490646835  0.1472949754127213  1.0000
  C   C38       1.0  0.28215293499210026  0.623385405634041  0.35270502466844583  1.0000
  C   C39       1.0  0.7821529350068007  0.8766145941133926  0.852705024749613  1.0000
  C   C40       1.0  0.7178470648659406  0.37661459582110424  0.6472949750589038  1.0000
  C   C41       1.0  0.1710956819818711  0.9933267527899539  0.09620093849459418  1.0000
  C   C42       1.0  0.32890431803282943  0.4933267544976655  0.40379906158657297  1.0000
  C   C43       1.0  0.8289043178761696  0.006673246229907101  0.9037990612327553  1.0000
  C   C44       1.0  0.6710956819965717  0.5066732469574796  0.5962009385757614  1.0000
  C   C45       1.0  0.341186948366664  0.13936054317142457  0.23445581794792317  1.0000
  C   C46       1.0  0.15881305164803652  0.6393605414637129  0.26554418213324393  1.0000
  C   C47       1.0  0.6588130514913767  0.8606394582837206  0.7655441817794264  1.0000
  C   C48       1.0  0.8411869483813645  0.360639457556148  0.7344558180290902  1.0000
  C   C49       1.0  0.4237439779143878  0.04545081532940615  0.2633753454755099  1.0000
  C   C50       1.0  0.07625602210031279  0.5454508160569786  0.23662465460565724  1.0000
  C   C51       1.0  0.5762560221150134  0.9545491836904547  0.7366246546868244  1.0000
  C   C52       1.0  0.9237439779290884  0.4545491853981664  0.7633753455566772  1.0000
  C   C53       1.0  0.35844686334863923  0.8489501645705898  0.15078935591126696  1.0000
  C   C54       1.0  0.1415531366660614  0.34895016384301725  0.3492106441699003  1.0000
  C   C55       1.0  0.641553136680762  0.1510498344492711  0.8492106442510674  1.0000
  C   C56       1.0  0.8584468633633396  0.6510498351768437  0.650789355992434  1.0000
  C   C57       1.0  0.4404887700684334  0.7686680462242542  0.1829199450761702  1.0000
  C   C58       1.0  0.059511229946267126  0.2686680454966816  0.3170800550049969  1.0000
  C   C59       1.0  0.5595112299609677  0.23133195523089095  0.8170800550861641  1.0000
  C   C60       1.0  0.9404887699117737  0.7313319535231793  0.6829199447223526  1.0000
  N   N1        1.0  0.47288218128476867  0.861134461463534  0.23853428673365662  1.0000
  N   N2        1.0  0.027117818729931895  0.3611344631712456  0.2614657133475105  1.0000
  N   N3        1.0  0.5271178185732721  0.13886553755632694  0.7614657129936929  1.0000
  N   N4        1.0  0.9728821812994692  0.6388655382838995  0.7385342868148237  1.0000
  F   F1        1.0  0.9563548179913042  0.421564380642211  0.4284700350902727  1.0000
  F   F2        1.0  0.5436451822624601  0.9215643789344994  0.0715299649125244  1.0000
  F   F3        1.0  0.043645182038096905  0.5784356208129341  0.5715299650720617  1.0000
  F   F4        1.0  0.456354817766941  0.07843562008536155  0.9284700352498099  1.0000
  F   F5        1.0  0.6216767941028296  0.22638638974404715  0.4281400421624989  1.0000
  F   F6        1.0  0.8783232055343468  0.7263863904716197  0.07185995784281293  1.0000
  F   F7        1.0  0.37832320592657154  0.7736136092758137  0.5718599579998355  1.0000
  F   F8        1.0  0.1216767943236938  0.27361361098352543  0.9281400418845366  1.0000
  F   F9        1.0  0.7495704968669791  0.9901216873823955  0.5156432719731959  1.0000
  F   F10       1.0  0.7504295031771226  0.4901216890901072  0.9843567282703055  1.0000
  F   F11       1.0  0.2504295031624221  0.009878311637465359  0.4843567281891384  1.0000
  F   F12       1.0  0.24957049685227856  0.5098783123650379  0.015643271892028795  1.0000
  F   F13       1.0  0.9159784981525454  0.08753627971336  0.5167834406589055  1.0000
  F   F14       1.0  0.5840215017201958  0.5875362780056483  0.9832165591496111  1.0000
  F   F15       1.0  0.08402150187685567  0.9124637217417851  0.48321655950342873  1.0000
  F   F16       1.0  0.4159784981378449  0.4124637210142125  0.016783440577738337  1.0000
  I   I1        1.0  0.6156157713328965  0.6320210672193068  0.31437368524177867  1.0000
  I   I2        1.0  0.884384228920868  0.1320210689270186  0.18562631476101846  1.0000
  I   I3        1.0  0.3843842286965047  0.367978931800554  0.6856263149205556  1.0000
  I   I4        1.0  0.11561577110853317  0.8679789325281266  0.8143736854013159  1.0000
  I   I5        1.0  0.8426084693348229  0.7366251485289657  0.31223298726405596  1.0000
  I   I6        1.0  0.6573915309189415  0.2366251478013931  0.18776701273874113  1.0000
  I   I7        1.0  0.1573915306945782  0.2633748529261795  0.6877670128982784  1.0000
  I   I8        1.0  0.34260846893909924  0.7633748512184678  0.8122329869886084  1.0000
