data_image0
_chemical_formula_structural       H40C72N8F16I8
_chemical_formula_sum              "H40 C72 N8 F16 I8"
_cell_length_a       7.867375439147782
_cell_length_b       11.897044989114566
_cell_length_c       19.275138738602813
_cell_angle_alpha    90.0
_cell_angle_beta     96.81874951561548
_cell_angle_gamma    90.0

_space_group_name_H-M_alt    "P 1"
_space_group_IT_number       1

loop_
  _space_group_symop_operation_xyz
  'x, y, z'

loop_
  _atom_site_type_symbol
  _atom_site_label
  _atom_site_symmetry_multiplicity
  _atom_site_fract_x
  _atom_site_fract_y
  _atom_site_fract_z
  _atom_site_occupancy
  H   H1        1.0  0.6867427478305431  0.3324426085316801  0.48075198327132884  1.0000
  H   H2        1.0  0.3132572518890572  0.8324426089891649  0.019248016879260154  1.0000
  H   H3        1.0  0.3132572524784848  0.6675573915427445  0.5192480169425319  1.0000
  H   H4        1.0  0.6867427471511469  0.16755739108525983  0.9807519833419023  1.0000
  H   H5        1.0  0.37422239039684657  0.3190754833215538  0.3114668732462033  1.0000
  H   H6        1.0  0.6257776091530184  0.8190754829384937  0.18853312638193795  1.0000
  H   H7        1.0  0.6257776097424462  0.6809245167528708  0.6885331264452098  1.0000
  H   H8        1.0  0.37422238971745037  0.18092451713593094  0.8114668733167765  1.0000
  H   H9        1.0  0.6470526246217121  0.5325730864930989  0.46917422235707323  1.0000
  H   H10       1.0  0.35294737636671203  0.032573086876158924  0.030825777786214467  1.0000
  H   H11       1.0  0.3529473756873158  0.46742691274078096  0.5308257778567878  1.0000
  H   H12       1.0  0.647052623942316  0.9674269131982658  0.9691742224276464  1.0000
  H   H13       1.0  0.4823351671984624  0.1842795242016789  0.3690785791525833  1.0000
  H   H14       1.0  0.5176648337899616  0.6842795238186189  0.13092142099070436  1.0000
  H   H15       1.0  0.5176648329408304  0.8157204758727459  0.6309214205388298  1.0000
  H   H16       1.0  0.48233516651906627  0.3157204762558059  0.8690785792231565  1.0000
  H   H17       1.0  0.2518413587033281  0.4916110046949809  0.25374369761806853  1.0000
  H   H18       1.0  0.7481586410162723  0.9916110051524656  0.24625630253252054  1.0000
  H   H19       1.0  0.7481586416056999  0.5083889953794438  0.7462563025957923  1.0000
  H   H20       1.0  0.25184135929275575  0.008388994921959011  0.7537436976813403  1.0000
  H   H21       1.0  0.5108992942845636  0.6966371101045006  0.4044904272131083  1.0000
  H   H22       1.0  0.4891007067038606  0.1966371104875606  0.09550957293017939  1.0000
  H   H23       1.0  0.48910070602446426  0.30336288996992417  0.5955095730007526  1.0000
  H   H24       1.0  0.5108992936051674  0.8033628895868642  0.9044904272836816  1.0000
  H   H25       1.0  0.7361855541465869  0.19467566711894668  0.5513363513708995  1.0000
  H   H26       1.0  0.2638144465821337  0.6946756675764314  0.9486636483837856  1.0000
  H   H27       1.0  0.26381444599270587  0.8053243329554779  0.4486636483205136  1.0000
  H   H28       1.0  0.7361855535571591  0.30532433249799323  0.05133635130762767  1.0000
  H   H29       1.0  0.581905226203453  0.9901948081039199  0.36892386409909206  1.0000
  H   H30       1.0  0.41809477351614727  0.49019480764643514  0.131076136051497  1.0000
  H   H31       1.0  0.41809477393583977  0.009805191970504756  0.631076135592321  1.0000
  H   H32       1.0  0.5819052255240568  0.5098051924279895  0.8689238641696654  1.0000
  H   H33       1.0  0.8732336596314401  0.02598886868822469  0.6075982544055019  1.0000
  H   H34       1.0  0.1267663410972804  0.5259888683051647  0.892401745349183  1.0000
  H   H35       1.0  0.1267663405078527  0.9740111313861999  0.3924017452859112  1.0000
  H   H36       1.0  0.8732336590420123  0.4740111309287152  0.1075982543422301  1.0000
  H   H37       1.0  0.7301890919674932  0.8292455150860316  0.43337065849408385  1.0000
  H   H38       1.0  0.26981090885119585  0.32924551462854684  0.06662934112675609  1.0000
  H   H39       1.0  0.2698109081717997  0.17075448498839307  0.5666293411973294  1.0000
  H   H40       1.0  0.730189091288097  0.6707544846053329  0.9333706585646572  1.0000
  C   C1        1.0  0.03775139021596381  0.9218086903121143  0.13865421161498642  1.0000
  C   C2        1.0  0.9622486095036364  0.4218086906951743  0.3613457885356027  1.0000
  C   C3        1.0  0.9622486100930641  0.07819130976231041  0.8613457885988745  1.0000
  C   C4        1.0  0.03775138936683241  0.5781913093792503  0.6386542111631118  1.0000
  C   C5        1.0  0.9875544469013932  0.022224614620010647  0.10504237072577076  1.0000
  C   C6        1.0  0.012445552818207157  0.5222246150774954  0.39495762942481827  1.0000
  C   C7        1.0  0.012445553407634851  0.9777753854544141  0.8949576294880901  1.0000
  C   C8        1.0  0.9875544462219968  0.47777538499692923  0.605042370796344  1.0000
  C   C9        1.0  0.15006871024175605  0.9267294769489275  0.20112321783566336  1.0000
  C   C10       1.0  0.849931290576933  0.4267294773319875  0.2988767817851765  1.0000
  C   C11       1.0  0.8499312898975369  0.07327052312549724  0.7988767818557497  1.0000
  C   C12       1.0  0.15006870956235982  0.5732705227424372  0.7011232179062367  1.0000
  C   C13       1.0  0.20802950779946588  0.031219828986092043  0.22684537851330522  1.0000
  C   C14       1.0  0.7919704919201344  0.5312198294435768  0.2731546216372838  1.0000
  C   C15       1.0  0.7919704912407382  0.9687801710883326  0.7731546217078571  1.0000
  C   C16       1.0  0.20802950821915842  0.46878017063084787  0.7268453780541293  1.0000
  C   C17       1.0  0.048283006909045814  0.12594677597428483  0.13040043436074494  1.0000
  C   C18       1.0  0.9517169939096433  0.6259467764317695  0.36959956526009496  1.0000
  C   C19       1.0  0.9517169932302468  0.8740532241001399  0.8695995653306681  1.0000
  C   C20       1.0  0.048283006229649574  0.3740532236426551  0.6304004344313181  1.0000
  C   C21       1.0  0.15976509597540944  0.13070114649669212  0.1919479755054428  1.0000
  C   C22       1.0  0.8402349037441907  0.6307011469541769  0.3080520246451463  1.0000
  C   C23       1.0  0.8402349043336186  0.8692988535777325  0.8080520247084182  1.0000
  C   C24       1.0  0.15976509529601324  0.3692988531202478  0.6919479755760161  1.0000
  C   C25       1.0  0.5970054577898826  0.3130547353067704  0.4346953545192096  1.0000
  C   C26       1.0  0.4029945419297176  0.8130547349237104  0.06530464563137944  1.0000
  C   C27       1.0  0.4029945425191453  0.6869452647676542  0.5653046456946512  1.0000
  C   C28       1.0  0.5970054571104864  0.18694526515071433  0.9346953545897828  1.0000
  C   C29       1.0  0.5214862710232921  0.4097355153704259  0.39661230093934385  1.0000
  C   C30       1.0  0.47851372996513203  0.9097355158279107  0.10338769920394379  1.0000
  C   C31       1.0  0.4785137292857359  0.5902644847039987  0.6033876992745171  1.0000
  C   C32       1.0  0.5214862703438959  0.09026448424651398  0.8966123010099171  1.0000
  C   C33       1.0  0.6480451708331032  0.10853056294074724  0.45396635339820834  1.0000
  C   C34       1.0  0.35195482888649704  0.608530563398232  0.046033646752380655  1.0000
  C   C35       1.0  0.3519548282071008  0.8914694371336774  0.5460336468229539  1.0000
  C   C36       1.0  0.648045171422531  0.3914694366761927  0.9539663534614803  1.0000
  C   C37       1.0  0.40877913432069074  0.40042762336015614  0.33441242055287046  1.0000
  C   C38       1.0  0.5912208653989095  0.900427622977096  0.16558757959771858  1.0000
  C   C39       1.0  0.5912208647195133  0.5995723767142686  0.6655875796682919  1.0000
  C   C40       1.0  0.4087791349101184  0.0995723762567838  0.8344124206161423  1.0000
  C   C41       1.0  0.5597277043115833  0.5190733964316634  0.4217493962952849  1.0000
  C   C42       1.0  0.440272295408017  0.019073396814723503  0.07825060385530408  1.0000
  C   C43       1.0  0.4402722959974447  0.4809266036427613  0.5782506039185759  1.0000
  C   C44       1.0  0.559727704901011  0.9809266032597012  0.9217493963585568  1.0000
  C   C45       1.0  0.5673959324401535  0.20439565725984354  0.4163629844832324  1.0000
  C   C46       1.0  0.43260406854827055  0.7043956568767835  0.08363701566005524  1.0000
  C   C47       1.0  0.43260406786887434  0.7956043428145811  0.5836370157306285  1.0000
  C   C48       1.0  0.5673959317607574  0.29560434319764123  0.9163629845538056  1.0000
  C   C49       1.0  0.3401907462882124  0.4968371881764159  0.3018002008219021  1.0000
  C   C50       1.0  0.659809253431388  0.9968371877933558  0.19819979932868695  1.0000
  C   C51       1.0  0.6598092525822565  0.5031628118980087  0.6981997988768125  1.0000
  C   C52       1.0  0.3401907468776401  0.0031628122810688354  0.801800200885174  1.0000
  C   C53       1.0  0.48423620246854227  0.6109148991745491  0.38576992493445494  1.0000
  C   C54       1.0  0.515763797251058  0.11091489955760919  0.1142300752161341  1.0000
  C   C55       1.0  0.5157637978404858  0.3890851008998756  0.614230075279406  1.0000
  C   C56       1.0  0.48423620305797  0.8890851005168154  0.8857699249977269  1.0000
  C   C57       1.0  0.731765991354089  0.1160678715818465  0.5224406252022861  1.0000
  C   C58       1.0  0.26823400954436666  0.6160678711987865  0.9775593750748468  1.0000
  C   C59       1.0  0.26823400895493893  0.8839321284925782  0.47755937501157486  1.0000
  C   C60       1.0  0.7317659907646613  0.3839321280350934  0.02244062513901422  1.0000
  C   C61       1.0  0.6461523783438922  0.0022718036306267285  0.42169738703881754  1.0000
  C   C62       1.0  0.35384762137570813  0.5022718032475666  0.0783026131117715  1.0000
  C   C63       1.0  0.3538476219651359  0.9977281964437978  0.5783026131750434  1.0000
  C   C64       1.0  0.6461523789333198  0.49772819682685804  0.9216973871020894  1.0000
  C   C65       1.0  0.8087139797657537  0.021388649049644236  0.5543663948621894  1.0000
  C   C66       1.0  0.19128601969414302  0.5213886486665842  0.945633604899797  1.0000
  C   C67       1.0  0.19128602037353923  0.9786113510247804  0.4456336048292237  1.0000
  C   C68       1.0  0.8087139804451497  0.47861135140784056  0.05436639479161618  1.0000
  C   C69       1.0  0.727600119885148  0.9121542946109051  0.45761655819482916  1.0000
  C   C70       1.0  0.2723998798344523  0.4121542941534203  0.04238344195575987  1.0000
  C   C71       1.0  0.2723998791550561  0.0878457054635196  0.5423834420263332  1.0000
  C   C72       1.0  0.7276001203048407  0.5878457059210044  0.9576165577356534  1.0000
  N   N1        1.0  0.37585196672613824  0.6006805443316948  0.3269028321168154  1.0000
  N   N2        1.0  0.6241480328237268  0.10068054471475492  0.17309716751132587  1.0000
  N   N3        1.0  0.6241480321443307  0.3993194557427298  0.6730971675818991  1.0000
  N   N4        1.0  0.3758519673155659  0.8993194553596697  0.8269028321800873  1.0000
  N   N5        1.0  0.8075232321201409  0.9205479360648433  0.5229114440696918  1.0000
  N   N6        1.0  0.19247676733975574  0.42054793560735854  0.9770885556922945  1.0000
  N   N7        1.0  0.19247676801915195  0.07945206400958138  0.47708855562172126  1.0000
  N   N8        1.0  0.807523231530713  0.5794520644670661  0.022911444006419996  1.0000
  F   F1        1.0  0.8743853767763686  0.023326995086084355  0.04591562582153767  1.0000
  F   F2        1.0  0.12561462294323178  0.5233269955435691  0.4540843743290514  1.0000
  F   F3        1.0  0.12561462353265948  0.9766730049883403  0.9540843743923233  1.0000
  F   F4        1.0  0.8743853773657962  0.47667300453085554  0.5459156258848096  1.0000
  F   F5        1.0  0.0006418089144506901  0.2219690244439883  0.09603504131542792  1.0000
  F   F6        1.0  0.9993581906354144  0.7219690240609282  0.4039649583127134  1.0000
  F   F7        1.0  0.9993581912248422  0.7780309756304363  0.9039649583759852  1.0000
  F   F8        1.0  0.0006418095038784045  0.2780309760134964  0.5960350413786998  1.0000
  F   F9        1.0  0.3177550906787602  0.040051427092692105  0.28690333296256665  1.0000
  F   F10       1.0  0.682244908871105  0.540051426709632  0.21309666666557464  1.0000
  F   F11       1.0  0.6822449094605326  0.9599485729817325  0.7130966667288465  1.0000
  F   F12       1.0  0.31775509126818785  0.45994857336479267  0.7869033330258385  1.0000
  F   F13       1.0  0.22122979250453922  0.23138734807834646  0.2159372192079614  1.0000
  F   F14       1.0  0.778770207215061  0.7313873485358312  0.2840627809426276  1.0000
  F   F15       1.0  0.7787702078044889  0.7686126511555333  0.7840627810058995  1.0000
  F   F16       1.0  0.22122979309396693  0.2686126515385934  0.7159372192712333  1.0000
  I   I1        1.0  0.9392373732339853  0.7700513193303331  0.09039327815341078  1.0000
  I   I2        1.0  0.06076262648561504  0.2700513188728483  0.4096067219971783  1.0000
  I   I3        1.0  0.06076262707504272  0.22994868074409158  0.90960672206045  1.0000
  I   I4        1.0  0.939237373823413  0.7299486812015763  0.5903932782166826  1.0000
  I   I5        1.0  0.24605033080670316  0.7815887380864687  0.2578376325925854  1.0000
  I   I6        1.0  0.7539496687431619  0.28158873762898395  0.24216236703555588  1.0000
  I   I7        1.0  0.7539496693325897  0.21841126198795596  0.7421623670988277  1.0000
  I   I8        1.0  0.24605033139613086  0.7184112624454406  0.7578376326558572  1.0000
