data_image0
_chemical_formula_structural       H32C16O16S4
_chemical_formula_sum              "H32 C16 O16 S4"
_cell_length_a       6.958266872218295
_cell_length_b       15.023548709742965
_cell_length_c       6.682714419219689
_cell_angle_alpha    90.0
_cell_angle_beta     116.68730589552823
_cell_angle_gamma    90.0

_space_group_name_H-M_alt    "P 1"
_space_group_IT_number       1

loop_
  _space_group_symop_operation_xyz
  'x, y, z'

loop_
  _atom_site_type_symbol
  _atom_site_label
  _atom_site_symmetry_multiplicity
  _atom_site_fract_x
  _atom_site_fract_y
  _atom_site_fract_z
  _atom_site_occupancy
  H   H1        1.0  0.5008194972781882  0.46971177957599425  0.27489525705120793  1.0000
  H   H2        1.0  0.49918050333583996  0.9697117799173596  0.2251047431407146  1.0000
  H   H3        1.0  0.49918050335967046  0.5302882204411147  0.7251047425517427  1.0000
  H   H4        1.0  0.5008194972795003  0.030288220099749335  0.7748952579479568  1.0000
  H   H5        1.0  0.28837892353185235  0.4788559872897756  0.9954204802499008  1.0000
  H   H6        1.0  0.7116210771073183  0.9788559869655191  0.5045795202497987  1.0000
  H   H7        1.0  0.7116210770834879  0.5211440127273334  0.004579520838770686  1.0000
  H   H8        1.0  0.2883789235305403  0.021144013051589777  0.4954204793531519  1.0000
  H   H9        1.0  0.029951104211585058  0.4302756602245274  0.15717331777282306  1.0000
  H   H10       1.0  0.9700488964024432  0.9302756605658926  0.3428266824190995  1.0000
  H   H11       1.0  0.9700488964037552  0.5697243397925816  0.8428266833158483  1.0000
  H   H12       1.0  0.029951104235415558  0.06972433945121623  0.6571733171838511  1.0000
  H   H13       1.0  0.20487836007921492  0.34724971514997377  0.14645287781286195  1.0000
  H   H14       1.0  0.7951216405348133  0.8472497154913391  0.35354712237906055  1.0000
  H   H15       1.0  0.7951216405361253  0.6527502848671352  0.8535471232758094  1.0000
  H   H16       1.0  0.20487836010304544  0.15275028452576986  0.64645287722389  1.0000
  H   H17       1.0  0.5150322915915142  0.31994837257609815  0.45046499093372794  1.0000
  H   H18       1.0  0.48496770902251396  0.8199483722518418  0.04953500925819461  1.0000
  H   H19       1.0  0.4849677090463444  0.6800516274410108  0.5495350086692227  1.0000
  H   H20       1.0  0.5150322915928264  0.18005162776526717  0.9504649918304768  1.0000
  H   H21       1.0  0.3616335184869291  0.26927167929215656  0.5730593714748395  1.0000
  H   H22       1.0  0.6383664805439088  0.7692716789679003  0.9269406282517901  1.0000
  H   H23       1.0  0.6383664805200783  0.7307283207249524  0.4269406288407621  1.0000
  H   H24       1.0  0.361633518485617  0.23072832104920873  0.07305937057809066  1.0000
  H   H25       1.0  0.5330807948739018  0.3768468648374931  0.8995413105115629  1.0000
  H   H26       1.0  0.4669192057652689  0.8768468645132367  0.6004586899881365  1.0000
  H   H27       1.0  0.46691920574143847  0.6231531351796158  0.10045869057710842  1.0000
  H   H28       1.0  0.5330807948725897  0.12315313550387223  0.39954130961481416  1.0000
  H   H29       1.0  0.7179479493259227  0.30414309217347196  0.86551370109807  1.0000
  H   H30       1.0  0.28205204970491526  0.8041430918492155  0.6344862986285597  1.0000
  H   H31       1.0  0.2820520497036031  0.695856907843637  0.1344862977318107  1.0000
  H   H32       1.0  0.7179479493020923  0.19585690816789333  0.3655137016870421  1.0000
  C   C1        1.0  0.3271026649854261  0.48138612851901447  0.17503389222270777  1.0000
  C   C2        1.0  0.6728973340202691  0.9813861288603797  0.32496610719614494  1.0000
  C   C3        1.0  0.6728973340440998  0.5186138714980945  0.8249661066071731  1.0000
  C   C4        1.0  0.32710266500925655  0.01861387115672915  0.6750338916337358  1.0000
  C   C5        1.0  0.19956144722373717  0.4109399170114999  0.2247472878732032  1.0000
  C   C6        1.0  0.8004385517819581  0.9109399166872436  0.27525271154564956  1.0000
  C   C7        1.0  0.8004385518057886  0.5890600830056091  0.7752527109566776  1.0000
  C   C8        1.0  0.1995614472250493  0.0890600833298654  0.724747288769952  1.0000
  C   C9        1.0  0.4388814021775441  0.33169020890306394  0.5607349958737352  1.0000
  C   C10       1.0  0.561118598484145  0.8316902085788076  0.9392650031402436  1.0000
  C   C11       1.0  0.5611185984603144  0.668309791114045  0.4392650037292155  1.0000
  C   C12       1.0  0.4388814021537137  0.16830979143830138  0.06073499646270703  1.0000
  C   C13       1.0  0.6069437315068317  0.3601169467032375  0.7892489658854231  1.0000
  C   C14       1.0  0.39305626913233904  0.8601169463789812  0.7107510346142762  1.0000
  C   C15       1.0  0.3930562691310269  0.6398830533138713  0.21075103371752746  1.0000
  C   C16       1.0  0.6069437314830012  0.13988305363812775  0.2892489664743951  1.0000
  O   O1        1.0  0.8092382201802812  0.3722302352155569  0.3425042850822178  1.0000
  O   O2        1.0  0.190761778825414  0.8722302348913006  0.15749571433663492  1.0000
  O   O3        1.0  0.19076177884924453  0.627769764801552  0.6574957137476629  1.0000
  O   O4        1.0  0.8092382201815933  0.12776976512580837  0.8425042859789666  1.0000
  O   O5        1.0  0.0640436755750903  0.30503104549646737  0.7016955498959887  1.0000
  O   O6        1.0  0.9359563250640804  0.805031045172211  0.7983044506037108  1.0000
  O   O7        1.0  0.93595632504025  0.6949689545206414  0.2983044511926827  1.0000
  O   O8        1.0  0.0640436755737782  0.1949689548448979  0.2016955489992399  1.0000
  O   O9        1.0  0.2781984220145997  0.4001924316390667  0.4634191909437753  1.0000
  O   O10       1.0  0.7218015785994284  0.900192431980432  0.03658080924814722  1.0000
  O   O11       1.0  0.7218015786007406  0.5998075683780422  0.536580810144896  1.0000
  O   O12       1.0  0.2781984220384302  0.09980756803667688  0.9634191903548034  1.0000
  O   O13       1.0  0.7325265558097319  0.433213408878504  0.7748923946576781  1.0000
  O   O14       1.0  0.26747344322110594  0.9332134092198694  0.7251076050689516  1.0000
  O   O15       1.0  0.26747344319727545  0.5667865911386049  0.22510760565792354  1.0000
  O   O16       1.0  0.7325265558084199  0.06678659079723957  0.27489239376092917  1.0000
  S   S1        1.0  0.9841784978962601  0.38536511990974553  0.5668260865348855  1.0000
  S   S2        1.0  0.01582150274291061  0.8853651202511109  0.933173913964814  1.0000
  S   S3        1.0  0.015821502741598516  0.6146348801073633  0.4331739130680651  1.0000
  S   S4        1.0  0.9841784978724296  0.11463487976599808  0.06682608712385742  1.0000
