data_image0
_chemical_formula_structural       H56C48N8Cl8I16
_chemical_formula_sum              "H56 C48 N8 Cl8 I16"
_cell_length_a       7.27344680168928
_cell_length_b       23.555895625783396
_cell_length_c       11.891932008791432
_cell_angle_alpha    90.0
_cell_angle_beta     106.20224852953935
_cell_angle_gamma    90.0

_space_group_name_H-M_alt    "P 1"
_space_group_IT_number       1

loop_
  _space_group_symop_operation_xyz
  'x, y, z'

loop_
  _atom_site_type_symbol
  _atom_site_label
  _atom_site_symmetry_multiplicity
  _atom_site_fract_x
  _atom_site_fract_y
  _atom_site_fract_z
  _atom_site_occupancy
  H   H1        1.0  0.44322727828155273  0.12774070652216724  0.4119347724286234  1.0000
  H   H2        1.0  0.44322727865966044  0.3722592933550737  0.9119347724455223  1.0000
  H   H3        1.0  0.5567727215787655  0.8722592936568369  0.5880652270681915  1.0000
  H   H4        1.0  0.5567727212006577  0.6277407063994082  0.08806522705129274  1.0000
  H   H5        1.0  0.47096395138468905  0.22100920265165516  0.5112473057452108  1.0000
  H   H6        1.0  0.47096395238009275  0.278990797650108  0.011247305725364306  1.0000
  H   H7        1.0  0.5290360471021176  0.778990797527349  0.4887526937545518  1.0000
  H   H8        1.0  0.5290360474802254  0.721009202528896  0.9887526937714508  1.0000
  H   H9        1.0  0.7955778179064029  0.24927681898763368  0.6517956542267428  1.0000
  H   H10       1.0  0.7955778175282952  0.25072318131412946  0.15179565420984395  1.0000
  H   H11       1.0  0.2044221823580343  0.7507231811913704  0.34820434614575335  1.0000
  H   H12       1.0  0.20442218273614207  0.7492768188648746  0.8482043461626523  1.0000
  H   H13       1.0  0.06711696513496711  0.1826175008727539  0.6791833345043286  1.0000
  H   H14       1.0  0.06711696475685935  0.31738249900448706  0.17918333448742974  1.0000
  H   H15       1.0  0.932883034725351  0.817382498881728  0.32081666499248646  1.0000
  H   H16       1.0  0.9328830351034587  0.682617501174517  0.8208166650093852  1.0000
  H   H17       1.0  0.19371383333610956  0.10430110274859442  0.6535161350680878  1.0000
  H   H18       1.0  0.19371383295800182  0.3956988971286466  0.15351613505118897  1.0000
  H   H19       1.0  0.8062861669283277  0.8956988974304096  0.34648386530440833  1.0000
  H   H20       1.0  0.8062861673064355  0.6043011026258354  0.8464838653213073  1.0000
  H   H21       1.0  0.12104871274327118  0.08269614880904007  0.5027739460582283  1.0000
  H   H22       1.0  0.12104871236516339  0.41730385106820084  0.0027739460413293768  1.0000
  H   H23       1.0  0.8789512875211661  0.9173038509454419  0.4972260543142679  1.0000
  H   H24       1.0  0.8789512878992738  0.5826961491108031  0.9972260543311667  1.0000
  H   H25       1.0  0.04222181867627463  0.04324487661954997  0.6107759736195187  1.0000
  H   H26       1.0  0.04222181967167836  0.456755123257691  0.11077597359967226  1.0000
  H   H27       1.0  0.9577781815881626  0.956755123559454  0.38922402675297735  1.0000
  H   H28       1.0  0.9577781805927588  0.543244876496791  0.8892240267728239  1.0000
  H   H29       1.0  0.5790501485577088  0.04424722271477364  0.06165653459846103  1.0000
  H   H30       1.0  0.5790501475623052  0.4557527771624673  0.5616565346183076  1.0000
  H   H31       1.0  0.42094985130260926  0.9557527770397083  0.9383434648983541  1.0000
  H   H32       1.0  0.4209498509245015  0.5442472230165367  0.4383434648814551  1.0000
  H   H33       1.0  0.7784032929831584  0.1142683450784938  0.20563497617625365  1.0000
  H   H34       1.0  0.7784032933612661  0.38573165479874716  0.7056349761931525  1.0000
  H   H35       1.0  0.22159670728127898  0.8857316551005103  0.7943650241962426  1.0000
  H   H36       1.0  0.22159670690317115  0.6142683449557347  0.2943650241793436  1.0000
  H   H37       1.0  0.6219222911902468  0.2022135250415292  0.252571496133533  1.0000
  H   H38       1.0  0.6219222915683545  0.29778647483571175  0.7525714961504318  1.0000
  H   H39       1.0  0.3780777090741904  0.7977864747129527  0.7474285042389631  1.0000
  H   H40       1.0  0.3780777086960827  0.7022135253432923  0.24742850422206425  1.0000
  H   H41       1.0  0.2737653514541253  0.2182353195848411  0.15346722934383944  1.0000
  H   H42       1.0  0.27376535183223305  0.28176468029239987  0.6534672293607383  1.0000
  H   H43       1.0  0.726234648810312  0.7817646801696408  0.8465327710286569  1.0000
  H   H44       1.0  0.7262346484322042  0.718235319462082  0.3465327710117579  1.0000
  H   H45       1.0  0.9546472128429243  0.12131283587757719  0.030475093905980598  1.0000
  H   H46       1.0  0.9546472132210321  0.37868716442418593  0.5304750939228795  1.0000
  H   H47       1.0  0.04535278742151291  0.8786871643014269  0.9695249064665156  1.0000
  H   H48       1.0  0.045352787043405195  0.6213128357548181  0.46952490644961675  1.0000
  H   H49       1.0  0.009100062079008028  0.1551449674450007  0.908682744951171  1.0000
  H   H50       1.0  0.009100063074411698  0.34485503243224025  0.40868274493132445  1.0000
  H   H51       1.0  0.9908999381854292  0.8448550323094812  0.09131725542132517  1.0000
  H   H52       1.0  0.9908999371900254  0.6551449677467639  0.5913172554411716  1.0000
  H   H53       1.0  0.00574664561367357  0.19609184780663086  0.034367659931437214  1.0000
  H   H54       1.0  0.005746645991781336  0.30390815207061006  0.5343676599483361  1.0000
  H   H55       1.0  0.9942533542466444  0.803908151947851  0.9656323395653776  1.0000
  H   H56       1.0  0.9942533538685367  0.6960918476838718  0.46563233954847894  1.0000
  C   C1        1.0  0.7384695828340185  0.10649808098377365  0.49017999303905146  1.0000
  C   C2        1.0  0.7384695832121263  0.3935019193179895  0.9901799930559503  1.0000
  C   C3        1.0  0.2615304174304187  0.8935019191952305  0.5098200073334447  1.0000
  C   C4        1.0  0.26153041705231095  0.6064980808610146  0.009820007316545839  1.0000
  C   C5        1.0  0.5793404852700772  0.14157413511162523  0.47085853727227417  1.0000
  C   C6        1.0  0.579340485648185  0.3584258647656158  0.970858537289173  1.0000
  C   C7        1.0  0.4206595145902409  0.858425865067379  0.5291414622245408  1.0000
  C   C8        1.0  0.4206595142121332  0.6415741349888662  0.029141462207641994  1.0000
  C   C9        1.0  0.596581744591025  0.19365782742757798  0.5276467415234474  1.0000
  C   C10       1.0  0.5965817442129172  0.306342172449663  0.027646741506548497  1.0000
  C   C11       1.0  0.40341825567341233  0.8063421723269039  0.47235325884904883  1.0000
  C   C12       1.0  0.40341825605152004  0.6936578277293411  0.9723532588659476  1.0000
  C   C13       1.0  0.7727207778846698  0.20945424654537687  0.6032600826068242  1.0000
  C   C14       1.0  0.7727207775065621  0.2905457533318641  0.10326008258992535  1.0000
  C   C15       1.0  0.2272792223797674  0.7905457536336272  0.3967399177656719  1.0000
  C   C16       1.0  0.2272792227578752  0.7094542464226178  0.8967399177825709  1.0000
  C   C17       1.0  0.9263154532239558  0.17302538501396725  0.6202561440226534  1.0000
  C   C18       1.0  0.9263154542193596  0.32697461486327367  0.12025614400280688  1.0000
  C   C19       1.0  0.07368454704048141  0.8269746151650368  0.37974385634984276  1.0000
  C   C20       1.0  0.07368454604507776  0.6730253848912082  0.8797438563696894  1.0000
  C   C21       1.0  0.07838783633989171  0.08535848527869891  0.5842126134553929  1.0000
  C   C22       1.0  0.078387835961784  0.41464151459854204  0.08421261343849405  1.0000
  C   C23       1.0  0.9216121639245454  0.9146415144757829  0.41578738691710326  1.0000
  C   C24       1.0  0.9216121643026531  0.5853584855804621  0.9157873869340021  1.0000
  C   C25       1.0  0.32529305225280275  0.09465693452807725  0.03217451480553715  1.0000
  C   C26       1.0  0.3252930526309105  0.4053430653491637  0.532174514822436  1.0000
  C   C27       1.0  0.6747069480116344  0.9053430652264046  0.967825485566959  1.0000
  C   C28       1.0  0.6747069476335268  0.5946569348298404  0.46782548555006015  1.0000
  C   C29       1.0  0.5175843731303664  0.08316125105664929  0.0844421605303954  1.0000
  C   C30       1.0  0.5175843735084742  0.4168387488205917  0.5844421605472943  1.0000
  C   C31       1.0  0.48241562672995164  0.9168387491223549  0.9155578389664196  1.0000
  C   C32       1.0  0.48241562635184393  0.5831612509338903  0.4155578389495208  1.0000
  C   C33       1.0  0.6264479965259268  0.12186006066600301  0.16389924215498808  1.0000
  C   C34       1.0  0.6264479969040345  0.3781399396357601  0.663899242171887  1.0000
  C   C35       1.0  0.3735520037385105  0.8781399395130011  0.8361007582175081  1.0000
  C   C36       1.0  0.37355200336040273  0.621860060543244  0.3361007582006092  1.0000
  C   C37       1.0  0.5407890393587176  0.17123009772488149  0.19000087695799223  1.0000
  C   C38       1.0  0.5407890397368253  0.32876990215235946  0.6900008769748911  1.0000
  C   C39       1.0  0.4592109605016005  0.8287699024541225  0.8099991225388228  1.0000
  C   C40       1.0  0.4592109601234928  0.6712300976021225  0.3099991225219239  1.0000
  C   C41       1.0  0.3491343809629692  0.1809476615839032  0.13576969636298572  1.0000
  C   C42       1.0  0.34913438134107694  0.3190523382933378  0.6357696963798846  1.0000
  C   C43       1.0  0.6508656188973488  0.8190523381705787  0.8642303031338293  1.0000
  C   C44       1.0  0.6508656185192412  0.6809476614611442  0.3642303031169304  1.0000
  C   C45       1.0  0.03917135934695511  0.1546791065762682  0.00412316421223175  1.0000
  C   C46       1.0  0.03917135972506286  0.34532089330097276  0.5041231642291306  1.0000
  C   C47       1.0  0.9608286409174821  0.8453208931782137  0.9958768361602643  1.0000
  C   C48       1.0  0.9608286405393743  0.6546791064535091  0.49587683614336553  1.0000
  N   N1        1.0  0.9094481462737968  0.1220694192944477  0.5647745539139649  1.0000
  N   N2        1.0  0.9094481472692003  0.3779305805827933  0.06477455389411839  1.0000
  N   N3        1.0  0.09055185358652146  0.8779305804600342  0.43522544558285015  1.0000
  N   N4        1.0  0.09055185259111773  0.6220694195962109  0.9352254456026966  1.0000
  N   N5        1.0  0.24329212899022762  0.14320037427521148  0.057772959034733146  1.0000
  N   N6        1.0  0.24329212799482394  0.3567996256020295  0.5577729590545797  1.0000
  N   N7        1.0  0.7567078708700904  0.8567996254792704  0.9422270404620819  1.0000
  N   N8        1.0  0.7567078718654942  0.6432003741524525  0.4422270404422353  1.0000
  Cl  Cl1       1.0  0.7222884231372284  0.042911378368207694  0.4211465217585872  1.0000
  Cl  Cl2       1.0  0.7222884221418248  0.45708862150903323  0.9211465217784337  1.0000
  Cl  Cl3       1.0  0.2777115767230897  0.9570886213862743  0.5788534777382278  1.0000
  Cl  Cl4       1.0  0.2777115781226125  0.5429113786699707  0.07885347859406247  1.0000
  Cl  Cl5       1.0  0.18549912926853462  0.04901432356221872  0.9339198326643385  1.0000
  Cl  Cl6       1.0  0.18549912889042686  0.45098567631502223  0.43391983264743966  1.0000
  Cl  Cl7       1.0  0.8145008709959026  0.9509856761922632  0.0660801677081576  1.0000
  Cl  Cl8       1.0  0.8145008713740103  0.5490143238639819  0.5660801677250564  1.0000
  I   I1        1.0  0.6469579137415599  0.06671816537851268  0.7769629343047183  1.0000
  I   I2        1.0  0.6469579147369635  0.43328183492325045  0.27696293428487173  1.0000
  I   I3        1.0  0.35304208652287744  0.9332818348004913  0.2230370660677779  1.0000
  I   I4        1.0  0.35304208552747374  0.5667181652557537  0.7230370660876245  1.0000
  I   I5        1.0  0.8349568525161385  0.9608395795923925  0.7322658296339469  1.0000
  I   I6        1.0  0.8349568521380305  0.5391604204638525  0.23226582961704798  1.0000
  I   I7        1.0  0.1650431477482988  0.03916042016208933  0.26773417073854927  1.0000
  I   I8        1.0  0.16504314812640655  0.46083957971515166  0.7677341707554481  1.0000
  I   I9        1.0  0.47099864656805956  0.17705232890550718  0.8181290310078854  1.0000
  I   I10       1.0  0.47099864756346327  0.3229476709717338  0.3181290309880388  1.0000
  I   I11       1.0  0.5290013536963777  0.8229476712734969  0.1818709693646108  1.0000
  I   I12       1.0  0.5290013527009739  0.6770523287827481  0.6818709693844573  1.0000
  I   I13       1.0  0.07755796925520708  0.19934229521972743  0.3460866791499143  1.0000
  I   I14       1.0  0.07755796825980335  0.3006577050820357  0.8460866791697608  1.0000
  I   I15       1.0  0.9224420310092301  0.8006577049592767  0.6539133212225818  1.0000
  I   I16       1.0  0.9224420320046338  0.6993422950969683  0.15391332120273532  1.0000
