data_image0
_chemical_formula_structural       H88C56N16O28S8
_chemical_formula_sum              "H88 C56 N16 O28 S8"
_cell_length_a       10.15315039940839
_cell_length_b       7.826291195263233
_cell_length_c       23.728930398749352
_cell_angle_alpha    90.0
_cell_angle_beta     96.47279297771699
_cell_angle_gamma    90.0

_space_group_name_H-M_alt    "P 1"
_space_group_IT_number       1

loop_
  _space_group_symop_operation_xyz
  'x, y, z'

loop_
  _atom_site_type_symbol
  _atom_site_label
  _atom_site_symmetry_multiplicity
  _atom_site_fract_x
  _atom_site_fract_y
  _atom_site_fract_z
  _atom_site_occupancy
  H   H1        1.0  0.6576142132310623  0.3189812054924483  0.3348569629043315  1.0000
  H   H2        1.0  0.8423857868822837  0.8189812045173227  0.16514303687770315  1.0000
  H   H3        1.0  0.34238578672758724  0.6810187951127895  0.665143037094374  1.0000
  H   H4        1.0  0.15761421307636578  0.18101879481017058  0.8348569631210023  1.0000
  H   H5        1.0  0.7757273679426673  0.5867933578525041  0.6064316370918651  1.0000
  H   H6        1.0  0.7242726329865411  0.0867933588276296  0.8935683629535413  1.0000
  H   H7        1.0  0.2242726330072163  0.41320664147498926  0.3935683629541886  1.0000
  H   H8        1.0  0.2757273669721085  0.9132066417776081  0.10643163704516416  1.0000
  H   H9        1.0  0.8585122089012656  0.4919066865707792  0.5195363886555986  1.0000
  H   H10       1.0  0.6414877910367088  0.9919066868733981  0.9804636113424597  1.0000
  H   H11       1.0  0.14148779105738404  0.5080933127567141  0.48046361134310694  1.0000
  H   H12       1.0  0.35851220892194074  0.00809331373183969  0.019536388656245792  1.0000
  H   H13       1.0  0.08172558457762549  0.35309626246369863  0.029517240808986687  1.0000
  H   H14       1.0  0.4182744154016993  0.8530962627663174  0.4704827591903661  1.0000
  H   H15       1.0  0.918274415381024  0.6469037381415391  0.9704827591897187  1.0000
  H   H16       1.0  0.5817255845569502  0.14690373783892027  0.5295172408083394  1.0000
  H   H17       1.0  0.07578843195898735  0.5639364316869828  0.05584354220399949  1.0000
  H   H18       1.0  0.42421156802033744  0.06393643138436401  0.4441564577953533  1.0000
  H   H19       1.0  0.9242115679996622  0.4360635689182548  0.9441564577947059  1.0000
  H   H20       1.0  0.5757884319383121  0.9360635692208737  0.5558435422033522  1.0000
  H   H21       1.0  0.833481446240614  0.5367229477153025  0.06174505814005522  1.0000
  H   H22       1.0  0.6665185538738246  0.03672294741268355  0.43825494206345833  1.0000
  H   H23       1.0  0.16651855371803553  0.46327705161219085  0.9382549418586502  1.0000
  H   H24       1.0  0.333481446084825  0.9632770519148097  0.5617450579352472  1.0000
  H   H25       1.0  0.8345205667350193  0.32620111957310494  0.03295114903353472  1.0000
  H   H26       1.0  0.6654794333794195  0.8262011185979793  0.4670488511699789  1.0000
  H   H27       1.0  0.16547943322363035  0.6737988810321329  0.9670488509651708  1.0000
  H   H28       1.0  0.3345205665792301  0.17379888072951397  0.5329511488287266  1.0000
  H   H29       1.0  0.1969853090605712  0.43087343236614384  0.22086953248513475  1.0000
  H   H30       1.0  0.3030146909187536  0.9308734326687628  0.279130467514218  1.0000
  H   H31       1.0  0.8030146908980784  0.5691265682390938  0.7791304675135708  1.0000
  H   H32       1.0  0.6969853090398959  0.069126567936475  0.7208695324844876  1.0000
  H   H33       1.0  0.09624241752624807  0.3804169428045236  0.1611159282287232  1.0000
  H   H34       1.0  0.40375758245307675  0.8804169431071425  0.33888407177062957  1.0000
  H   H35       1.0  0.9037575824324016  0.6195830565229697  0.8388840717699823  1.0000
  H   H36       1.0  0.5962424175055728  0.11958305749809527  0.661115928228076  1.0000
  H   H37       1.0  0.1565564242619032  0.2229350143598019  0.20513975103440535  1.0000
  H   H38       1.0  0.3434435757174216  0.7229350146624208  0.2948602489649474  1.0000
  H   H39       1.0  0.8434435756967463  0.7770649862454359  0.7948602489643002  1.0000
  H   H40       1.0  0.6565564252324619  0.277064985942817  0.7051397510811064  1.0000
  H   H41       1.0  0.030514878372839685  0.3273437961969204  0.2777882033068036  1.0000
  H   H42       1.0  0.4694851216064851  0.8273437964995392  0.22221179669254917  1.0000
  H   H43       1.0  0.9694851215858098  0.6726562044083174  0.7222117966919019  1.0000
  H   H44       1.0  0.5305148783521644  0.1726562041056985  0.7777882033061563  1.0000
  H   H45       1.0  0.9798243989270652  0.5054678201079821  0.23411359423495123  1.0000
  H   H46       1.0  0.5201756011873734  0.00546782108310764  0.26588640596856233  1.0000
  H   H47       1.0  0.02017560103158425  0.4945321792195112  0.7658864057637542  1.0000
  H   H48       1.0  0.47982439877127625  0.9945321795221301  0.7341135940301431  1.0000
  H   H49       1.0  0.916677375988026  0.13230072510292967  0.1997072193520647  1.0000
  H   H50       1.0  0.5833226231351786  0.6323007254055486  0.3002927808041006  1.0000
  H   H51       1.0  0.08332262397062352  0.8676992755023081  0.8002927806466408  1.0000
  H   H52       1.0  0.4166773768234709  0.3676992751996892  0.699707219194605  1.0000
  H   H53       1.0  0.8079611448390968  0.26443824774276  0.23316483393055235  1.0000
  H   H54       1.0  0.6920388552753419  0.7644382480453789  0.2668351662729612  1.0000
  H   H55       1.0  0.19203885511955288  0.7355617515847334  0.7668351660681532  1.0000
  H   H56       1.0  0.3079611446833076  0.2355617525598589  0.7331648337257443  1.0000
  H   H57       1.0  0.7525207379737933  0.25533145395988405  0.1270132347094598  1.0000
  H   H58       1.0  0.7474792621406453  0.7553314542625029  0.37298676549405374  1.0000
  H   H59       1.0  0.24747926198485626  0.7446685466453538  0.8729867652892456  1.0000
  H   H60       1.0  0.25252073781800416  0.24466854634273483  0.6270132345046517  1.0000
  H   H61       1.0  0.7866478790745127  0.4665882854205731  0.15327019807185077  1.0000
  H   H62       1.0  0.713352121039926  0.9665882844454475  0.34672980213166277  1.0000
  H   H63       1.0  0.21335212088413688  0.5334117151846646  0.8467298019268547  1.0000
  H   H64       1.0  0.28664787891872356  0.03341171488204572  0.6532701978670427  1.0000
  H   H65       1.0  0.047886087363796646  0.6220871711171035  0.37759640675569633  1.0000
  H   H66       1.0  0.4521139126155281  0.12208717209222913  0.12240359324365642  1.0000
  H   H67       1.0  0.9521139125948528  0.37791282821038974  0.6224035932430092  1.0000
  H   H68       1.0  0.5478860873431215  0.8779128285130087  0.8775964067550491  1.0000
  H   H69       1.0  0.06770360460880602  0.7054236588259618  0.31064509941577645  1.0000
  H   H70       1.0  0.43229639537051884  0.20542365852334293  0.1893549005835763  1.0000
  H   H71       1.0  0.9322963953498434  0.2945763417792759  0.689354900582929  1.0000
  H   H72       1.0  0.5677036045881307  0.7945763408041504  0.8106450994151292  1.0000
  H   H73       1.0  0.012753690414935294  0.9699551218582886  0.2900012087807189  1.0000
  H   H74       1.0  0.4872463095643895  0.46995512155566965  0.20999879121863388  1.0000
  H   H75       1.0  0.9872463095437143  0.030044878746949204  0.7099987912179866  1.0000
  H   H76       1.0  0.5127536903942601  0.530044879049568  0.7900012087800715  1.0000
  H   H77       1.0  0.9711858502438931  0.1183423420994813  0.3422621832963729  1.0000
  H   H78       1.0  0.5288141498694531  0.6183423424021002  0.15773781648566174  1.0000
  H   H79       1.0  0.028814149714756487  0.8816576572280119  0.6577378167023326  1.0000
  H   H80       1.0  0.47118585008919656  0.38165765692539316  0.8422621835130437  1.0000
  H   H81       1.0  0.9777405002582694  0.021102778554925088  0.4363181083590417  1.0000
  H   H82       1.0  0.5222594998561693  0.521102778857544  0.06368189184447182  1.0000
  H   H83       1.0  0.022259499700380173  0.9788972207725682  0.5636818916396638  1.0000
  H   H84       1.0  0.4777405001024803  0.4788972204699493  0.9363181081542337  1.0000
  H   H85       1.0  0.02673224663866489  0.8103218857788356  0.45350361342748663  1.0000
  H   H86       1.0  0.47326775334065996  0.3103218854762167  0.04649638657186616  1.0000
  H   H87       1.0  0.9732677533199846  0.1896781148264022  0.5464963865712189  1.0000
  H   H88       1.0  0.5267322466179896  0.6896781138512766  0.9535036134268393  1.0000
  C   C1        1.0  0.48430518163018665  0.38196312728681375  0.37525055350397646  1.0000
  C   C2        1.0  0.015694818349138145  0.8819631275894326  0.1247494464953763  1.0000
  C   C3        1.0  0.515694818328463  0.618036873318424  0.6247494464947291  1.0000
  C   C4        1.0  0.9843051816095114  0.11803687301580512  0.8752505535033293  1.0000
  C   C5        1.0  0.4326975671920025  0.43401451661494855  0.4254558925219807  1.0000
  C   C6        1.0  0.06730243278732224  0.934014515639823  0.07454410747737206  1.0000
  C   C7        1.0  0.567302432766647  0.5659854839902893  0.5745441074767249  1.0000
  C   C8        1.0  0.9326975671713273  0.06598548368767032  0.9254558925213333  1.0000
  C   C9        1.0  0.5241597226228403  0.4723790142433685  0.47433376569791036  1.0000
  C   C10       1.0  0.9758402764992717  0.9723790145459874  0.025666234036776082  1.0000
  C   C11       1.0  0.47584027733580914  0.5276209850841248  0.5256662343007952  1.0000
  C   C12       1.0  0.02415972345937782  0.027620986059250414  0.9743337659619293  1.0000
  C   C13       1.0  0.6638879895474157  0.4552605699308075  0.4722197934315196  1.0000
  C   C14       1.0  0.8361120105670229  0.9552605702334264  0.027780206771994016  1.0000
  C   C15       1.0  0.33611201041123384  0.5447394293966858  0.5277802065671859  1.0000
  C   C16       1.0  0.16388799038286062  0.04473942909406697  0.9722197932740596  1.0000
  C   C17       1.0  0.7086872229248747  0.39673851541318295  0.42133245497912303  1.0000
  C   C18       1.0  0.7913127771884713  0.8967385157158018  0.07866754480291162  1.0000
  C   C19       1.0  0.2913127770337748  0.6032614851920548  0.5786675450195825  1.0000
  C   C20       1.0  0.20868722277017826  0.10326148488943596  0.921332455195794  1.0000
  C   C21       1.0  0.620102589249347  0.3618308135166129  0.37363437153596163  1.0000
  C   C22       1.0  0.8798974108639991  0.8618308138192318  0.12636562824607298  1.0000
  C   C23       1.0  0.37989741070930255  0.6381691858108804  0.6263656284627438  1.0000
  C   C24       1.0  0.12010258909465052  0.13816918678600604  0.8736343717526325  1.0000
  C   C25       1.0  0.7522109375090746  0.4987539579874668  0.5212718927988825  1.0000
  C   C26       1.0  0.7477890624288998  0.9987539582900856  0.9787281071991758  1.0000
  C   C27       1.0  0.24778906244957488  0.501246042617771  0.478728107199823  1.0000
  C   C28       1.0  0.2522109375297499  0.0012460423151520622  0.02127189279952978  1.0000
  C   C29       1.0  0.7059662169927016  0.5519036108206961  0.5701255783152039  1.0000
  C   C30       1.0  0.7940337829452727  0.05190361179582167  0.9298744216828543  1.0000
  C   C31       1.0  0.29403378296594795  0.44809638850679717  0.42987442168350154  1.0000
  C   C32       1.0  0.20596621701337683  0.9480963888094162  0.07012557831585121  1.0000
  C   C33       1.0  0.8955851391056676  0.42229253135895345  0.057975244025950314  1.0000
  C   C34       1.0  0.6044148610076785  0.9222925316615723  0.4420247557560843  1.0000
  C   C35       1.0  0.10441486085298195  0.5777074692462844  0.9420247559727551  1.0000
  C   C36       1.0  0.3955851389509711  0.07770746894366545  0.5579752442426212  1.0000
  C   C37       1.0  0.01819714106188994  0.46690695232649015  0.03010043376591697  1.0000
  C   C38       1.0  0.48180285891743485  0.9669069526291091  0.46989956623343576  1.0000
  C   C39       1.0  0.9818028588967596  0.5330930470010031  0.9698995662327885  1.0000
  C   C40       1.0  0.5181971410412147  0.03309304669838429  0.5301004337652697  1.0000
  C   C41       1.0  0.830695040387098  0.33911614630520187  0.14794662233980876  1.0000
  C   C42       1.0  0.6693049597273407  0.8391161466078209  0.35205337786370483  1.0000
  C   C43       1.0  0.16930495957155164  0.6608838530222914  0.8520533776588967  1.0000
  C   C44       1.0  0.33069504023130886  0.16088385399741698  0.6479466221350006  1.0000
  C   C45       1.0  0.886930322187904  0.26594011238167276  0.205005722644709  1.0000
  C   C46       1.0  0.613069677925442  0.7659401126842916  0.2949942771373256  1.0000
  C   C47       1.0  0.11306967876197954  0.7340598869458206  0.7949942774013448  1.0000
  C   C48       1.0  0.3869303220332075  0.23405988792094615  0.7050057228613799  1.0000
  C   C49       1.0  0.0030343389342028493  0.3684541653325245  0.23394211816483795  1.0000
  C   C50       1.0  0.4969656610451219  0.8684541656351433  0.2660578818345148  1.0000
  C   C51       1.0  0.9969656610244467  0.6315458352727132  0.7660578818338677  1.0000
  C   C52       1.0  0.5030343389135277  0.1315458349700944  0.7339421181641907  1.0000
  C   C53       1.0  0.027677692126699873  0.8766864685730911  0.36970891804089967  1.0000
  C   C54       1.0  0.4723223078526249  0.37668646827047225  0.1302910819584531  1.0000
  C   C55       1.0  0.9723223078319496  0.12331353203214665  0.6302910819578058  1.0000
  C   C56       1.0  0.5276776921060247  0.6233135310570211  0.8697089180402523  1.0000
  N   N1        1.0  0.123420558202748  0.3493774550140582  0.20324842576015645  1.0000
  N   N2        1.0  0.3765794417765768  0.8493774540389326  0.29675157423919635  1.0000
  N   N3        1.0  0.8765794417559016  0.6506225455911796  0.7967515742385491  1.0000
  N   N4        1.0  0.6234205581820728  0.15062254528856067  0.7032484257595091  1.0000
  N   N5        1.0  0.009681071767041617  0.9038714537329544  0.4237976576523709  1.0000
  N   N6        1.0  0.4903189282122831  0.40387145343033554  0.07620234234698184  1.0000
  N   N7        1.0  0.9903189281916079  0.0961285455945389  0.5762023423463346  1.0000
  N   N8        1.0  0.5096810717463663  0.5961285458971577  0.9237976576517235  1.0000
  N   N9        1.0  0.07104663112946104  0.7235355456013723  0.35332267484435526  1.0000
  N   N10       1.0  0.42895336884986374  0.22353554529875347  0.1466773251549975  1.0000
  N   N11       1.0  0.9289533688291886  0.27646445500386535  0.6466773251543503  1.0000
  N   N12       1.0  0.5710466311087858  0.7764644540287399  0.8533226748437079  1.0000
  N   N13       1.0  0.006152718031648313  0.0011065931210484058  0.3313030243578776  1.0000
  N   N14       1.0  0.4938472819476765  0.5011065934236673  0.16869697564147512  1.0000
  N   N15       1.0  0.9938472819270011  0.9988934062064448  0.6686969756408279  1.0000
  N   N16       1.0  0.5061527180109731  0.498893405903826  0.8313030243572305  1.0000
  O   O1        1.0  0.30425992802493446  0.4983279171059292  0.29629304480289254  1.0000
  O   O2        1.0  0.19574007195439033  0.9983279174085481  0.20370695519646018  1.0000
  O   O3        1.0  0.6957400719337151  0.5016720822215641  0.7037069551958129  1.0000
  O   O4        1.0  0.8042599280042592  0.0016720831966896743  0.7962930448022453  1.0000
  O   O5        1.0  0.4701661242318393  0.2982279986480233  0.26879723990949667  1.0000
  O   O6        1.0  0.029833875747485524  0.7982279989506422  0.23120276008985607  1.0000
  O   O7        1.0  0.5298338757268103  0.7017720019572145  0.7312027600892088  1.0000
  O   O8        1.0  0.970166124211164  0.2017720016545956  0.7687972399088494  1.0000
  O   O9        1.0  0.2924637565782788  0.19698225398680017  0.3227504164667464  1.0000
  O   O10       1.0  0.207536243401046  0.6969822530116746  0.17724958353260636  1.0000
  O   O11       1.0  0.7075362433803708  0.8030177466184376  0.6772495835319592  1.0000
  O   O12       1.0  0.7924637565576035  0.30301774631581874  0.822750416466099  1.0000
  O   O13       1.0  0.921963366234711  0.22690216166180766  0.45768956479290257  1.0000
  O   O14       1.0  0.5780366338786351  0.7269021619644265  0.04231043498913206  1.0000
  O   O15       1.0  0.07803663372393854  0.7730978376656856  0.5423104352058029  1.0000
  O   O16       1.0  0.42196336608001445  0.2730978373630668  0.9576895650095735  1.0000
  O   O17       1.0  0.8886001837265953  0.3085728820647049  0.3570884372980005  1.0000
  O   O18       1.0  0.6113998163867508  0.8085728823673238  0.14291156248403408  1.0000
  O   O19       1.0  0.11139981623205426  0.6914271172627884  0.642911562700705  1.0000
  O   O20       1.0  0.3886001835718988  0.19142711823791397  0.8570884375146715  1.0000
  O   O21       1.0  0.9466834488634356  0.5255086026557779  0.429957744130417  1.0000
  O   O22       1.0  0.5533165512499104  0.025508602353159094  0.07004225565161763  1.0000
  O   O23       1.0  0.053316551095213965  0.47449139794945977  0.5700422558682885  1.0000
  O   O24       1.0  0.44668344870873905  0.9744913969743343  0.9299577443470878  1.0000
  O   O25       1.0  0.9369587410202647  0.35459659380929265  0.11323150903945256  1.0000
  O   O26       1.0  0.5630412590930814  0.8545965941119115  0.38676849074258207  1.0000
  O   O27       1.0  0.0630412589383849  0.6454034055182007  0.886768490959253  1.0000
  O   O28       1.0  0.43695874086556813  0.14540340521558182  0.6132315092561235  1.0000
  S   S1        1.0  0.3790334926962698  0.3388429019361074  0.3113302842426456  1.0000
  S   S2        1.0  0.12096650728305497  0.8388429009609818  0.18866971575670718  1.0000
  S   S3        1.0  0.6209665072623798  0.6611570986691304  0.68866971575606  1.0000
  S   S4        1.0  0.8790334926755945  0.16115709836651154  0.8113302842419984  1.0000
  S   S5        1.0  0.8807342620942769  0.36186833575961064  0.41610689963696185  1.0000
  S   S6        1.0  0.6192657380190694  0.8618683360622295  0.0838931001450728  1.0000
  S   S7        1.0  0.11926573786437278  0.6381316648456271  0.5838931003617437  1.0000
  S   S8        1.0  0.3807342619395803  0.13813166454300826  0.9161068998536327  1.0000
