data_image0
_chemical_formula_structural       H78C56O22Br14
_chemical_formula_sum              "H78 C56 O22 Br14"
_cell_length_a       12.491951762005183
_cell_length_b       13.33734863686381
_cell_length_c       13.541982576894606
_cell_angle_alpha    68.74025784752686
_cell_angle_beta     66.78390666453977
_cell_angle_gamma    68.16301932305232

_space_group_name_H-M_alt    "P 1"
_space_group_IT_number       1

loop_
  _space_group_symop_operation_xyz
  'x, y, z'

loop_
  _atom_site_type_symbol
  _atom_site_label
  _atom_site_symmetry_multiplicity
  _atom_site_fract_x
  _atom_site_fract_y
  _atom_site_fract_z
  _atom_site_occupancy
  H   H1        1.0  0.438232325677495  0.7917804107158122  0.01751204598503209  1.0000
  H   H2        1.0  0.5617676738200811  0.20821958981067026  0.9824879536481594  1.0000
  H   H3        1.0  0.456440085903296  0.7142124103619835  0.15181341574545604  1.0000
  H   H4        1.0  0.5435599143918096  0.2857875901700597  0.8481865838894986  1.0000
  H   H5        1.0  0.5734445045749971  0.604614710892025  0.007807165041952587  1.0000
  H   H6        1.0  0.4265554957201084  0.3953852896400182  0.9921928345930019  1.0000
  H   H7        1.0  0.6507437315277806  0.7106679314391989  0.9250367349838933  1.0000
  H   H8        1.0  0.3492562679697953  0.2893320690872835  0.07496326464929817  1.0000
  H   H9        1.0  0.7890508140535925  0.5181633559238367  0.958862701852414  1.0000
  H   H10       1.0  0.21094918548563235  0.4818366435960961  0.04113729862833223  1.0000
  H   H11       1.0  0.8467773236910188  0.48713425922777104  0.07070428822424787  1.0000
  H   H12       1.0  0.15322267552718266  0.5128657411040686  0.9292957122393294  1.0000
  H   H13       1.0  0.9710520355814077  0.5818848284492539  0.8813129351829457  1.0000
  H   H14       1.0  0.02894796395781674  0.41811517107067886  0.11868706529780051  1.0000
  H   H15       1.0  0.8502660440363955  0.7069817369323446  0.8902267355101086  1.0000
  H   H16       1.0  0.14973395657973335  0.29301826278779175  0.1097732641420147  1.0000
  H   H17       1.0  0.9568278977126741  0.8012340154984273  0.9112875917594073  1.0000
  H   H18       1.0  0.04317210290345497  0.1987659842217089  0.08871240789271613  1.0000
  H   H19       1.0  0.09386327241184822  0.6941524771579374  0.9141805628151135  1.0000
  H   H20       1.0  0.9061367282042806  0.3058475225621989  0.0858194368370099  1.0000
  H   H21       1.0  0.03753825780133715  0.6801901119517956  0.12205436232892061  1.0000
  H   H22       1.0  0.9624617416962385  0.31980988857468695  0.877945637304271  1.0000
  H   H23       1.0  0.07220705703861109  0.8062643655896529  0.031790226452920796  1.0000
  H   H24       1.0  0.9277929435775176  0.19373563413048356  0.9682097731992025  1.0000
  H   H25       1.0  0.883462944583491  0.9498746042425251  0.9799889677362457  1.0000
  H   H26       1.0  0.1165370557116147  0.05012539628951797  0.020011031898708877  1.0000
  H   H27       1.0  0.9207911502205405  0.9686136197679399  0.08638773758524643  1.0000
  H   H28       1.0  0.0792088501162138  0.03138637975755365  0.9136122628972628  1.0000
  H   H29       1.0  0.7087926081933926  0.969203378657033  0.21234621741365475  1.0000
  H   H30       1.0  0.2912073916252068  0.030796621057542488  0.7876537822367056  1.0000
  H   H31       1.0  0.7151830258726052  0.07920011129650115  0.08737908564609369  1.0000
  H   H32       1.0  0.28481697394599403  0.9207998884180743  0.9126209140042667  1.0000
  H   H33       1.0  0.5231089598956244  0.1050666830582933  0.20586425221690038  1.0000
  H   H34       1.0  0.4768910404411298  0.8949333164672003  0.7941357482656088  1.0000
  H   H35       1.0  0.30680564872819727  0.8921963345720126  0.15040131566847775  1.0000
  H   H36       1.0  0.6931943516085571  0.10780366495348088  0.8495986848140314  1.0000
  H   H37       1.0  0.683102953230381  0.4369945110846512  0.22784061362749444  1.0000
  H   H38       1.0  0.31689704678535013  0.5630054892527494  0.7721593868378458  1.0000
  H   H39       1.0  0.6282801423158096  0.3493488621910372  0.36110866375017175  1.0000
  H   H40       1.0  0.3717198569023918  0.6506511381408024  0.6388913367134056  1.0000
  H   H41       1.0  0.7733673539791985  0.375259325816053  0.4286300590284993  1.0000
  H   H42       1.0  0.22663264635755576  0.6247406737094405  0.5713699414540099  1.0000
  H   H43       1.0  0.8466944249862504  0.30681498346421804  0.3180632883924301  1.0000
  H   H44       1.0  0.15330557451132565  0.6931850170622643  0.6819367112407615  1.0000
  H   H45       1.0  0.004768870039459417  0.5125245478731121  0.24319009709114126  1.0000
  H   H46       1.0  0.9952311294581165  0.4874754526533704  0.7568099025420502  1.0000
  H   H47       1.0  0.9971514320905549  0.37841554586208215  0.3359241252806123  1.0000
  H   H48       1.0  0.002848567728044281  0.6215844538524934  0.6640758743697481  1.0000
  H   H49       1.0  0.8315001677128158  0.4768005407294844  0.4812665887183473  1.0000
  H   H50       1.0  0.1684998326239386  0.5231994587960092  0.5187334117641619  1.0000
  H   H51       1.0  0.9723006574602745  0.5093015826731204  0.4376756666127928  1.0000
  H   H52       1.0  0.027699342834831286  0.49069841785892276  0.5623243330221617  1.0000
  H   H53       1.0  0.8524567083016945  0.6809909155871039  0.49607196163030537  1.0000
  H   H54       1.0  0.14754329119588125  0.3190090849393786  0.5039280380028861  1.0000
  H   H55       1.0  0.7149063108239211  0.648110207618603  0.5265432095781807  1.0000
  H   H56       1.0  0.2850936889946781  0.3518897920959725  0.47345679007217967  1.0000
  H   H57       1.0  0.7060077476925677  0.8578851419351028  0.4751236679789037  1.0000
  H   H58       1.0  0.2939922515256337  0.14211485839673693  0.5248763324846737  1.0000
  H   H59       1.0  0.7969399636687828  0.8440507401389251  0.33947660534341456  1.0000
  H   H60       1.0  0.20306003694734606  0.15594925958121114  0.6605233943087088  1.0000
  H   H61       1.0  0.47752529894229145  0.9086425747757685  0.4937931346703241  1.0000
  H   H62       1.0  0.5224747013528142  0.09135742575627477  0.5062068649646304  1.0000
  H   H63       1.0  0.5348992154598221  0.7619624554296368  0.5431720160793646  1.0000
  H   H64       1.0  0.46510078403775384  0.23803754509684574  0.45682798355382676  1.0000
  H   H65       1.0  0.34073097309521505  0.8190882515954372  0.49540140242533304  1.0000
  H   H66       1.0  0.6592690271998904  0.18091174893660592  0.5045985972096215  1.0000
  H   H67       1.0  0.42150116514135966  0.8673181574893077  0.3529703071759838  1.0000
  H   H68       1.0  0.5784988351537459  0.1326818430427355  0.6470296924589706  1.0000
  H   H69       1.0  0.2532103968057624  0.792673087849601  0.3912534229240756  1.0000
  H   H70       1.0  0.7467896034893432  0.20732691268244222  0.6087465767108788  1.0000
  H   H71       1.0  0.4853696350093908  0.4408036917410521  0.27104569695998376  1.0000
  H   H72       1.0  0.5146303652857147  0.5591963087909911  0.7289543026749707  1.0000
  H   H73       1.0  0.7126099681706809  0.6752907121839617  0.14332701472857642  1.0000
  H   H74       1.0  0.2873900316479182  0.3247092875306138  0.856672984921784  1.0000
  H   H75       1.0  0.761121313774091  0.6268910006666343  0.2524520925121807  1.0000
  H   H76       1.0  0.23887868572348475  0.3731089998598481  0.7475479071210108  1.0000
  H   H77       1.0  0.7853772826710587  0.7453055628555096  0.16628259842323423  1.0000
  H   H78       1.0  0.21462271794507012  0.2546944368646267  0.8337174012288893  1.0000
  C   C1        1.0  0.5028690593022118  0.7530078380509732  0.06608741835335784  1.0000
  C   C2        1.0  0.4971309402370129  0.2469921614689595  0.9339125821273885  1.0000
  C   C3        1.0  0.6067191658791605  0.6690391833640442  0.010556676921459897  1.0000
  C   C4        1.0  0.3932808336184155  0.3309608171624382  0.9894433227117316  1.0000
  C   C5        1.0  0.8073992833328553  0.5550350476451144  0.009192121255443471  1.0000
  C   C6        1.0  0.19260071728327338  0.44496495207502196  0.9908078783966799  1.0000
  C   C7        1.0  0.8940632216157425  0.6266921611993764  0.9393167356582435  1.0000
  C   C8        1.0  0.10593677872101173  0.373307838326117  0.06068326482426579  1.0000
  C   C9        1.0  0.0016072792077699073  0.7270058373318836  0.9657193681917734  1.0000
  C   C10       1.0  0.9983927210873358  0.2729941632001597  0.034280631443181185  1.0000
  C   C11       1.0  0.007648554467086779  0.7562233766743808  0.060983909789552926  1.0000
  C   C12       1.0  0.9923514458280185  0.24377662385766252  0.9390160898454015  1.0000
  C   C13       1.0  0.8637222069210371  0.9334760273934467  0.07055704278982235  1.0000
  C   C14       1.0  0.13627779369509174  0.06652397232668962  0.9294429568623012  1.0000
  C   C15       1.0  0.7330929250884257  0.9878785047080685  0.12140588767357716  1.0000
  C   C16       1.0  0.2669070747301736  0.012121495006507027  0.8785941119767833  1.0000
  C   C17       1.0  0.5420059886822567  0.974199407047199  0.13674060082238274  1.0000
  C   C18       1.0  0.4579940116544975  0.025800592478294568  0.8632593996601264  1.0000
  C   C19       1.0  0.47710184130439987  0.05795855997664292  0.19285709683336888  1.0000
  C   C20       1.0  0.5228981587113313  0.9420414403607575  0.8071429036319713  1.0000
  C   C21       1.0  0.35061189095651885  0.08208337890173169  0.23297780662910092  1.0000
  C   C22       1.0  0.6493881085410569  0.9179166216247509  0.7670221930040906  1.0000
  C   C23       1.0  0.28960484938683884  0.022705862260542227  0.21799619972246945  1.0000
  C   C24       1.0  0.7103951504317603  0.9772941374540333  0.782003799927891  1.0000
  C   C25       1.0  0.35519390870805573  0.9384387826964867  0.16130433723418564  1.0000
  C   C26       1.0  0.644806090831169  0.06156121682344593  0.8386956632465605  1.0000
  C   C27       1.0  0.48053255578056864  0.913569236858857  0.12101108353501157  1.0000
  C   C28       1.0  0.5194674442351623  0.08643076347854346  0.8789889169303287  1.0000
  C   C29       1.0  0.6714913529454061  0.4181703668800421  0.3170533587575104  1.0000
  C   C30       1.0  0.3285086470703249  0.5818296334573585  0.6829466417078298  1.0000
  C   C31       1.0  0.7899261371365427  0.3863968423681993  0.3397349724124418  1.0000
  C   C32       1.0  0.21007386240268183  0.6136031571517333  0.6602650280683043  1.0000
  C   C33       1.0  0.9448101356842052  0.4660602879079429  0.31343701586249884  1.0000
  C   C34       1.0  0.05518986381337061  0.5339397126185396  0.6865629837706926  1.0000
  C   C35       1.0  0.8962483248101984  0.5182968467181648  0.4099878117807234  1.0000
  C   C36       1.0  0.10375167468737746  0.4817031538083176  0.5900121878524681  1.0000
  C   C37       1.0  0.7834261923538671  0.6886564256245247  0.4598818192731457  1.0000
  C   C38       1.0  0.21657380826226175  0.3113435740956116  0.5401181803789777  1.0000
  C   C39       1.0  0.7291058468100037  0.8111772661500075  0.41375508764222335  1.0000
  C   C40       1.0  0.27089415240819764  0.18882273418183204  0.586244912821354  1.0000
  C   C41       1.0  0.5180965559416716  0.8288123662564125  0.469225176699564  1.0000
  C   C42       1.0  0.48190344327652984  0.17118763407542711  0.5307748237640133  1.0000
  C   C43       1.0  0.4302064400514581  0.8085556093760267  0.43271600562636964  1.0000
  C   C44       1.0  0.569793559446118  0.19144439115045583  0.5672839940068218  1.0000
  C   C45       1.0  0.4200169166613712  0.6610278401844362  0.3781627989637157  1.0000
  C   C46       1.0  0.5799830836337343  0.3389721603476072  0.6218372006712387  1.0000
  C   C47       1.0  0.3044820014313526  0.7148891632911611  0.36680558936426466  1.0000
  C   C48       1.0  0.6955179983872465  0.2851108364234144  0.6331944102860958  1.0000
  C   C49       1.0  0.2529160680573987  0.6694549570568585  0.3233373182040247  1.0000
  C   C50       1.0  0.7470839322377067  0.3305450434751848  0.6766626814309298  1.0000
  C   C51       1.0  0.31818998867413617  0.5707104102374265  0.2902824412009862  1.0000
  C   C52       1.0  0.6818100108650886  0.4292895892825063  0.70971755927976  1.0000
  C   C53       1.0  0.43480584904128866  0.5159885321666308  0.3006445801809726  1.0000
  C   C54       1.0  0.5651941507773106  0.48401146754794466  0.6993554194693878  1.0000
  C   C55       1.0  0.48568137289823143  0.5601395654132133  0.3447504084779487  1.0000
  C   C56       1.0  0.5143186277178974  0.43986043430692306  0.6552495911741747  1.0000
  O   O1        1.0  0.5534797859005058  0.8333832376661799  0.06598962708289309  1.0000
  O   O2        1.0  0.44652021443624834  0.16661676185931362  0.934010373399616  1.0000
  O   O3        1.0  0.6937661698046531  0.616171900309358  0.07201956152155373  1.0000
  O   O4        1.0  0.3062338300139461  0.3838280994052176  0.9279804381288066  1.0000
  O   O5        1.0  0.9344516582675008  0.6455825677626742  0.014515637007085903  1.0000
  O   O6        1.0  0.06554834202760475  0.354417432769369  0.9854843626278686  1.0000
  O   O7        1.0  0.8897561074279245  0.8151282221669903  0.12021104376908447  1.0000
  O   O8        1.0  0.1102438925878066  0.18487177817041017  0.8797889566962558  1.0000
  O   O9        1.0  0.6639804179652067  0.9439635216956164  0.09261815654721216  1.0000
  O   O10       1.0  0.33601958232989904  0.05603647883642686  0.9073818430877424  1.0000
  O   O11       1.0  0.597661193339957  0.5153247969135152  0.3574046819532102  1.0000
  O   O12       1.0  0.4023388061992677  0.48467520260641744  0.642595318527536  1.0000
  O   O13       1.0  0.8499814266479289  0.4734303530514836  0.2742153834628083  1.0000
  O   O14       1.0  0.15001857336780228  0.5265696472859168  0.7257846170025319  1.0000
  O   O15       1.0  0.8391694023009244  0.6331293394528885  0.37215205541065793  1.0000
  O   O16       1.0  0.16083059803582986  0.366870660072605  0.6278479450718513  1.0000
  O   O17       1.0  0.6269385951179243  0.8317983486908982  0.379458846582528  1.0000
  O   O18       1.0  0.3730614051771812  0.1682016518411451  0.6205411530524265  1.0000
  O   O19       1.0  0.47798294119343293  0.6962506274712255  0.41970702621540135  1.0000
  O   O20       1.0  0.5220170591433212  0.3037493720542683  0.5802929742671079  1.0000
  O   O21       1.0  0.7259948567726567  0.6973031335728593  0.20229725647439706  1.0000
  O   O22       1.0  0.2740051435640974  0.3026968659526343  0.7977027440081121  1.0000
  Br  Br1       1.0  0.2664903732418667  0.19903131702401966  0.3070284400979458  1.0000
  Br  Br2       1.0  0.733509626297358  0.800968682495913  0.6929715603828004  1.0000
  Br  Br3       1.0  0.11924531352190589  0.045258431811871176  0.2788579477774918  1.0000
  Br  Br4       1.0  0.8807546868148485  0.9547415677136224  0.7211420527050173  1.0000
  Br  Br5       1.0  0.09382905452869512  0.7453852929192942  0.31309781739947734  1.0000
  Br  Br6       1.0  0.9061709454870357  0.2546147074181061  0.6869021830658629  1.0000
  Br  Br7       1.0  0.2545280247055761  0.5039747566589412  0.2311341838450372  1.0000
  Br  Br8       1.0  0.7454719747919998  0.49602524386754127  0.7688658157881544  1.0000
  Br  Br9       1.0  0.8402298196317785  0.03593700710510476  0.3963368325195707  1.0000
  Br  Br10      1.0  0.15977018098435022  0.9640629926150316  0.6036631671325527  1.0000
  Br  Br11      1.0  0.7409884084060697  0.16984292599238368  0.24774472542015  1.0000
  Br  Br12      1.0  0.2590115910915062  0.8301570745340988  0.7522552742130415  1.0000
  Br  Br13      1.0  0.6435996500955392  0.31293574369117894  0.09440561508617042  1.0000
  Br  Br14      1.0  0.35640035052058955  0.6870642560289574  0.905594384565953  1.0000
