data_image0
_chemical_formula_structural       H52C52N20O8S8
_chemical_formula_sum              "H52 C52 N20 O8 S8"
_cell_length_a       8.352440814832818
_cell_length_b       18.66779900367147
_cell_length_c       9.42008706209035
_cell_angle_alpha    90.0
_cell_angle_beta     103.50512114802119
_cell_angle_gamma    90.0

_space_group_name_H-M_alt    "P 1"
_space_group_IT_number       1

loop_
  _space_group_symop_operation_xyz
  'x, y, z'

loop_
  _atom_site_type_symbol
  _atom_site_label
  _atom_site_symmetry_multiplicity
  _atom_site_fract_x
  _atom_site_fract_y
  _atom_site_fract_z
  _atom_site_occupancy
  H   H1        1.0  0.36259911389095834  0.6590357453270399  0.36658379634935195  1.0000
  H   H2        1.0  0.637400885639539  0.15903574542537688  0.13341620318206596  1.0000
  H   H3        1.0  0.637400886447016  0.34096425447628614  0.633416203733088  1.0000
  H   H4        1.0  0.36259911346718815  0.8409642543779492  0.8665837966554019  1.0000
  H   H5        1.0  0.2764847391008487  0.7239254481656959  0.45943630645303885  1.0000
  H   H6        1.0  0.723515260441219  0.22392544826403285  0.04056369414228929  1.0000
  H   H7        1.0  0.7235152612371256  0.2760745516376301  0.5405636936294012  1.0000
  H   H8        1.0  0.27648473866550816  0.7760745515392933  0.9594363056951786  1.0000
  H   H9        1.0  0.02914611975309611  0.02045931659778875  0.3727528491463062  1.0000
  H   H10       1.0  0.9708538797774011  0.5204593164994518  0.12724715038511167  1.0000
  H   H11       1.0  0.9708538805848782  0.9795406837412192  0.6272471509361338  1.0000
  H   H12       1.0  0.029146119329325947  0.47954068383955606  0.8727528494523561  1.0000
  H   H13       1.0  0.44116037178807044  0.8221635039557397  0.5906354856537365  1.0000
  H   H14       1.0  0.5588396281261337  0.32216350405407657  0.9093645147347534  1.0000
  H   H15       1.0  0.5588396285499039  0.17783649638326826  0.4093645144287034  1.0000
  H   H16       1.0  0.4411603722118406  0.6778364962849313  0.09063548534768652  1.0000
  H   H17       1.0  0.7117613148800832  0.8796871557686182  0.6599804080906974  1.0000
  H   H18       1.0  0.2882386850341209  0.37968715586695523  0.8400195922977926  1.0000
  H   H19       1.0  0.2882386854578911  0.12031284457038964  0.34001959199174264  1.0000
  H   H20       1.0  0.7117613153038533  0.6203128444720527  0.15998040778464734  1.0000
  H   H21       1.0  0.9195563414233053  0.712912770133349  0.43803467951853226  1.0000
  H   H22       1.0  0.08044365811876232  0.21291277023168598  0.06196532107679579  1.0000
  H   H23       1.0  0.08044365891466891  0.2870872296699771  0.5619653205639077  1.0000
  H   H24       1.0  0.919556342219212  0.78708722957164  0.9380346790056442  1.0000
  H   H25       1.0  0.6446253789754287  0.6563604786825802  0.36586197495240247  1.0000
  H   H26       1.0  0.35537462056663893  0.1563604787809172  0.13413802564292562  1.0000
  H   H27       1.0  0.3553746213625455  0.34363952112074586  0.6341380251300375  1.0000
  H   H28       1.0  0.6446253785400883  0.8436395210224088  0.8658619741945421  1.0000
  H   H29       1.0  0.09300889034595232  0.014361189551444888  0.12428933019377246  1.0000
  H   H30       1.0  0.9069911104273625  0.5143611899887898  0.3757106706465277  1.0000
  H   H31       1.0  0.906991109992022  0.9856388102518813  0.8757106698886674  1.0000
  H   H32       1.0  0.0930088899106118  0.48563881035021816  0.6242893294359122  1.0000
  H   H33       1.0  0.14044772175658451  0.876811994642797  0.05220510838707347  1.0000
  H   H34       1.0  0.85955227900516  0.37681199474113397  0.44779489138931644  1.0000
  H   H35       1.0  0.8595522785813897  0.12318800516052905  0.9477948916953665  1.0000
  H   H36       1.0  0.14044772133281436  0.6231880050621921  0.5522051086931234  1.0000
  H   H37       1.0  0.5424235378559212  0.43818903280409227  0.08014512203601322  1.0000
  H   H38       1.0  0.4575764616861465  0.9381890332414371  0.41985487855931486  1.0000
  H   H39       1.0  0.4575764624820531  0.5618109669992337  0.9198548780464267  1.0000
  H   H40       1.0  0.5424235374205807  0.06181096709757068  0.580145121278153  1.0000
  H   H41       1.0  0.40225830104413957  0.3519465829210952  0.21927840257387243  1.0000
  H   H42       1.0  0.5977416997291752  0.8519465828227583  0.2807215982664278  1.0000
  H   H43       1.0  0.5977416992938347  0.6480534168822308  0.7807215975085675  1.0000
  H   H44       1.0  0.402258300608799  0.1480534169805678  0.7192784018160122  1.0000
  H   H45       1.0  0.26027777957883136  0.4058419285803304  0.40482308276609436  1.0000
  H   H46       1.0  0.739722219951666  0.9058419284819934  0.09517691676532353  1.0000
  H   H47       1.0  0.7397222207591428  0.5941580712229957  0.5951769173163456  1.0000
  H   H48       1.0  0.26027777915506123  0.0941580713213326  0.9048230830721443  1.0000
  H   H49       1.0  0.2769338054568588  0.5408824365429564  0.4361354286047516  1.0000
  H   H50       1.0  0.7230661940736385  0.04088243664129346  0.06386457092666627  1.0000
  H   H51       1.0  0.7230661948811156  0.4591175632603695  0.5638645714776883  1.0000
  H   H52       1.0  0.2769338050330887  0.9591175631620326  0.9361354289108017  1.0000
  C   C1        1.0  0.5248819211618566  0.7332664701022243  0.4772809272996351  1.0000
  C   C2        1.0  0.4751180783686407  0.23326647020056138  0.022719072231782676  1.0000
  C   C3        1.0  0.4751180779448705  0.2667335297011017  0.5227190725378327  1.0000
  C   C4        1.0  0.5248819219693337  0.7667335301384465  0.9772809278506573  1.0000
  C   C5        1.0  0.5459383236037432  0.7979394955490141  0.5582001002750017  1.0000
  C   C6        1.0  0.4540616763104609  0.29793949564735106  0.9417999001134881  1.0000
  C   C7        1.0  0.4540616767342311  0.202060504254312  0.4417998998074381  1.0000
  C   C8        1.0  0.5459383227962663  0.7020605046916568  0.05820009972397971  1.0000
  C   C9        1.0  0.6994170305492026  0.8297621330159787  0.5984300875700378  1.0000
  C   C10       1.0  0.3005829693650015  0.32976213257863385  0.9015699128184521  1.0000
  C   C11       1.0  0.30058296978877164  0.17023786732302917  0.40156991251240215  1.0000
  C   C12       1.0  0.6994170309729728  0.6702378672246923  0.09843008726398779  1.0000
  C   C13       1.0  0.8359495228562481  0.7984567263161817  0.5595780528395824  1.0000
  C   C14       1.0  0.16405047704638562  0.29845672641451865  0.9404219464849973  1.0000
  C   C15       1.0  0.16405047748172613  0.20154327348714435  0.44042194724285755  1.0000
  C   C16       1.0  0.8359495232915887  0.7015432733888074  0.0595780535974426  1.0000
  C   C17       1.0  0.8158420990942975  0.7363119592886475  0.4732924971744752  1.0000
  C   C18       1.0  0.1841579004361998  0.2363119593869844  0.026707502356942695  1.0000
  C   C19       1.0  0.18415790124367676  0.26368804051467865  0.5267075029079648  1.0000
  C   C20       1.0  0.8158420999017745  0.7636880404163416  0.9732924977254972  1.0000
  C   C21       1.0  0.6623614911665148  0.7044193885638979  0.4330115269161216  1.0000
  C   C22       1.0  0.3376385083639826  0.2044193886622349  0.06698847261529624  1.0000
  C   C23       1.0  0.3376385091714596  0.29558061123942814  0.5669884731663183  1.0000
  C   C24       1.0  0.6623614907427446  0.7955806111410911  0.9330115272221716  1.0000
  C   C25       1.0  0.06482655742694445  0.9107014703049024  0.40089254598240576  1.0000
  C   C26       1.0  0.9351734421035529  0.4107014704032394  0.0991074535490121  1.0000
  C   C27       1.0  0.9351734429110298  0.08929852949842362  0.5991074541000342  1.0000
  C   C28       1.0  0.0648265570031743  0.5892985294000866  0.9008925462884557  1.0000
  C   C29       1.0  0.09067433577880875  0.966237009325657  0.1885363592810711  1.0000
  C   C30       1.0  0.9093256637516886  0.46623700942399393  0.31146364025034673  1.0000
  C   C31       1.0  0.9093256645591655  0.03376299047766907  0.8114636408013689  1.0000
  C   C32       1.0  0.0906743353550386  0.5337629909150139  0.6885363595871211  1.0000
  C   C33       1.0  0.11429535424193811  0.8974042122858301  0.1520078532267403  1.0000
  C   C34       1.0  0.8857046465198063  0.3974042123841671  0.34799214654964966  1.0000
  C   C35       1.0  0.8857046460960362  0.1025957875174959  0.8479921468556997  1.0000
  C   C36       1.0  0.11429535381816794  0.602595787419159  0.6520078535327903  1.0000
  C   C37       1.0  0.48188144525610616  0.4568984532307484  0.16419432584051347  1.0000
  C   C38       1.0  0.5181185555056382  0.9568984531324114  0.3358056739358765  1.0000
  C   C39       1.0  0.518118555081868  0.5431015471082595  0.8358056742419264  1.0000
  C   C40       1.0  0.481881444832336  0.043101547206596445  0.6641943261465634  1.0000
  C   C41       1.0  0.40256461140457783  0.40937548387450445  0.2401282551914375  1.0000
  C   C42       1.0  0.5974353893571668  0.9093754837761675  0.25987174458495244  1.0000
  C   C43       1.0  0.5974353889333964  0.5906245159288217  0.7598717448910024  1.0000
  C   C44       1.0  0.40256461098080765  0.09062451602715857  0.7401282554974876  1.0000
  C   C45       1.0  0.3251643682316742  0.43890568825969095  0.3411627552091377  1.0000
  C   C46       1.0  0.6748356325416407  0.9389056881613541  0.15883724563116253  1.0000
  C   C47       1.0  0.6748356321063  0.5610943115436351  0.6588372448733023  1.0000
  C   C48       1.0  0.3251643677963337  0.06109431164197204  0.8411627544512773  1.0000
  C   C49       1.0  0.33414425399450054  0.5131981064353548  0.35878129284136273  1.0000
  C   C50       1.0  0.6658557467788142  0.01319810653369171  0.1412187079989375  1.0000
  C   C51       1.0  0.6658557463434738  0.4868018933679713  0.6412187072410773  1.0000
  C   C52       1.0  0.33414425355916  0.986801893805316  0.8587812920835023  1.0000
  N   N1        1.0  0.3780732630476669  0.6984658709596994  0.44359331829760384  1.0000
  N   N2        1.0  0.6219267377256479  0.1984658710580363  0.05640668254269635  1.0000
  N   N3        1.0  0.6219267372903073  0.30153412884362674  0.5564066817848362  1.0000
  N   N4        1.0  0.3780732626123264  0.8015341287452898  0.9435933175397437  1.0000
  N   N5        1.0  0.03720172605452041  0.9099734637521575  0.5340502518494564  1.0000
  N   N6        1.0  0.9627982738596838  0.4099734638504943  0.9659497485390335  1.0000
  N   N7        1.0  0.9627982730522068  0.09002653605116866  0.46594974798801136  1.0000
  N   N8        1.0  0.03720172647829057  0.5900265364885136  0.034050251543406504  1.0000
  N   N9        1.0  0.06327535158724765  0.9729523591092788  0.32665642566446335  1.0000
  N   N10       1.0  0.9367246479432496  0.47295235920761575  0.17334357386695448  1.0000
  N   N11       1.0  0.9367246487507267  0.027047640694047293  0.6733435744179767  1.0000
  N   N12       1.0  0.06327535116347748  0.5270476405957103  0.8266564259705134  1.0000
  N   N13       1.0  0.412207678757956  0.5562961626037207  0.2837017413325911  1.0000
  N   N14       1.0  0.5877923220153588  0.05629616270205772  0.21629825950770906  1.0000
  N   N15       1.0  0.5877923215800183  0.4437038371996053  0.7162982587498489  1.0000
  N   N16       1.0  0.4122076783226155  0.9437038371012684  0.7837017405747309  1.0000
  N   N17       1.0  0.48679297756978107  0.5279830609951139  0.18535081145538376  1.0000
  N   N18       1.0  0.5132070219722866  0.027983061093450872  0.31464918913994433  1.0000
  N   N19       1.0  0.5132070215369461  0.47201693880821216  0.8146491883820841  1.0000
  N   N20       1.0  0.48679297836568763  0.9720169387098752  0.6853508109424956  1.0000
  O   O1        1.0  0.04510787940484422  0.8595019823624823  0.7734899186539491  1.0000
  O   O2        1.0  0.9548921204977896  0.3595019824608192  0.7265100806706306  1.0000
  O   O3        1.0  0.95489212093313  0.14049801797652556  0.22651008142849077  1.0000
  O   O4        1.0  0.04510787860893762  0.6404980178781886  0.2734899191668373  1.0000
  O   O5        1.0  0.15200860085962023  0.784639815176884  0.5953717059701155  1.0000
  O   O6        1.0  0.8479913990545838  0.2846398147395391  0.9046282944183744  1.0000
  O   O7        1.0  0.8479913994783541  0.21536018516212393  0.4046282941123244  1.0000
  O   O8        1.0  0.15200860128339042  0.715360185063787  0.09537170566406548  1.0000
  S   S1        1.0  0.03092496825855382  0.8359181838700401  0.6236539572612975  1.0000
  S   S2        1.0  0.9690750316556503  0.3359181834326953  0.8763460431271924  1.0000
  S   S3        1.0  0.9690750320794205  0.1640818164689677  0.3763460428211425  1.0000
  S   S4        1.0  0.030924968682323986  0.6640818163706307  0.12365395695524752  1.0000
  S   S5        1.0  0.10486235186607525  0.8395421820707223  0.2938549457337481  1.0000
  S   S6        1.0  0.8951376489072396  0.3395421821690592  0.20614505510655212  1.0000
  S   S7        1.0  0.895137648471899  0.16045781773260384  0.7061450543486918  1.0000
  S   S8        1.0  0.10486235143073475  0.6604578176342668  0.7938549449758878  1.0000
