data_image0
_chemical_formula_structural       H40C50N4O6F12
_chemical_formula_sum              "H40 C50 N4 O6 F12"
_cell_length_a       10.57094658827946
_cell_length_b       10.777743107342074
_cell_length_c       11.541434384500228
_cell_angle_alpha    86.99340663706225
_cell_angle_beta     79.20061636602426
_cell_angle_gamma    62.44409859112272

_space_group_name_H-M_alt    "P 1"
_space_group_IT_number       1

loop_
  _space_group_symop_operation_xyz
  'x, y, z'

loop_
  _atom_site_type_symbol
  _atom_site_label
  _atom_site_symmetry_multiplicity
  _atom_site_fract_x
  _atom_site_fract_y
  _atom_site_fract_z
  _atom_site_occupancy
  H   H1        1.0  0.6978661400974219  0.2768897225045491  0.47240726209771866  1.0000
  H   H2        1.0  0.3021338605020882  0.7231102767280537  0.5275927378216869  1.0000
  H   H3        1.0  0.8475434753963579  0.9119248451543506  0.34541063268292116  1.0000
  H   H4        1.0  0.1524565246956607  0.08807515512558686  0.6545893672763378  1.0000
  H   H5        1.0  0.8254590281579559  0.008533653624651355  0.4729813515179415  1.0000
  H   H6        1.0  0.17454097193406284  0.991466346655286  0.5270186484413174  1.0000
  H   H7        1.0  0.9708246594201382  0.1892372899177895  0.32947856721288826  1.0000
  H   H8        1.0  0.029175339712189777  0.81076271035521  0.6705214329067374  1.0000
  H   H9        1.0  0.22906988721245744  0.13420627424836618  0.28223006240869547  1.0000
  H   H10       1.0  0.7709301124273616  0.8657937249772987  0.7177699376710769  1.0000
  H   H11       1.0  0.42270160883765745  0.8843828925151579  0.2693262926755003  1.0000
  H   H12       1.0  0.5772983902946704  0.11561710775784162  0.7306737074441252  1.0000
  H   H13       1.0  0.3507625282645287  0.6929789281425055  0.2985281549274243  1.0000
  H   H14       1.0  0.64923747182749  0.30702107213743196  0.7014718450318346  1.0000
  H   H15       1.0  0.09304689054747038  0.7483774660154702  0.3470471631531982  1.0000
  H   H16       1.0  0.9069531095445483  0.2516225342644671  0.6529528368060606  1.0000
  H   H17       1.0  0.2960087264717762  0.4381793049030969  0.2821338002971938  1.0000
  H   H18       1.0  0.7039912741277337  0.5618206943295059  0.7178661996222118  1.0000
  H   H19       1.0  0.1280179619413351  0.5554418010202737  0.14337636831198233  1.0000
  H   H20       1.0  0.8719820381478876  0.44455819925472  0.8566236325144199  1.0000
  H   H21       1.0  0.2206644682897882  0.5185515589963174  0.9262371208341007  1.0000
  H   H22       1.0  0.7793355308425396  0.4814484412766821  0.073762879285525  1.0000
  H   H23       1.0  0.48125433086849245  0.3648260797416018  0.8499988777706486  1.0000
  H   H24       1.0  0.5187456692235263  0.6351739205383357  0.15000112218861025  1.0000
  H   H25       1.0  0.652202468550906  0.25053802682573956  0.9885705730182865  1.0000
  H   H26       1.0  0.3477975310889131  0.7494619723999254  0.011429427061485808  1.0000
  H   H27       1.0  0.5346305951163157  0.038056487316007456  0.14876978844789338  1.0000
  H   H28       1.0  0.46536940452350334  0.9619435119096574  0.8512302116318788  1.0000
  H   H29       1.0  0.6196074508167299  0.8387573881678677  0.0062034870867627755  1.0000
  H   H30       1.0  0.38039254978278  0.1612426110647351  0.9937965128326429  1.0000
  H   H31       1.0  0.8819670069359301  0.70366579988386  0.9206176301976321  1.0000
  H   H32       1.0  0.11803299315608842  0.29633420039607744  0.07938236976162674  1.0000
  H   H33       1.0  0.06011950620831709  0.7691774495620326  0.9787018549750648  1.0000
  H   H34       1.0  0.9398804938837018  0.23082255071790478  0.021298144984194016  1.0000
  H   H35       1.0  0.9755181020703874  0.9672435844566408  0.12107741555157932  1.0000
  H   H36       1.0  0.024481898529122425  0.03275641477596212  0.8789225843678262  1.0000
  H   H37       1.0  0.4349748705206739  0.43668399765486576  0.6317207821253582  1.0000
  H   H38       1.0  0.5650251295713448  0.5633160026250716  0.3682792178339008  1.0000
  H   H39       1.0  0.3537711788646433  0.4843088588884357  0.44572664636851106  1.0000
  H   H40       1.0  0.6462288212273753  0.5156911413915016  0.5542733535907478  1.0000
  C   C1        1.0  0.6803613158018029  0.2511930373827563  0.38954822161421904  1.0000
  C   C2        1.0  0.31963868479770696  0.7488069618498465  0.6104517783051865  1.0000
  C   C3        1.0  0.5859112143326105  0.26967673165181605  0.22700758588580924  1.0000
  C   C4        1.0  0.4140887857594082  0.7303232686281214  0.7729924140734495  1.0000
  C   C5        1.0  0.6973900463038172  0.13434335321417643  0.22810217899869445  1.0000
  C   C6        1.0  0.3026099542956927  0.8656566460184263  0.7718978209207111  1.0000
  C   C7        1.0  0.8587817614693865  0.9998845092112217  0.3763730532650604  1.0000
  C   C8        1.0  0.14121823862263236  0.0001154910687154526  0.6236269466941984  1.0000
  C   C9        1.0  0.01439139492572391  0.9726576136045957  0.3421992903894761  1.0000
  C   C10       1.0  0.9856086047140952  0.027342385621069228  0.6578007096902962  1.0000
  C   C11       1.0  0.05385593684157499  0.0802504852164243  0.3233202066335313  1.0000
  C   C12       1.0  0.9461440632504436  0.9197495150635131  0.6766797933257277  1.0000
  C   C13       1.0  0.2003202475830517  0.048893231797861605  0.29632839891833507  1.0000
  C   C14       1.0  0.7996797525089671  0.9511067684820759  0.7036716010409239  1.0000
  C   C15       1.0  0.30828093811644874  0.9098771553472472  0.28833946459781545  1.0000
  C   C16       1.0  0.69171906197557  0.09012284493269018  0.7116605353614435  1.0000
  C   C17       1.0  0.2686744909097451  0.8022498758615239  0.30614798842132496  1.0000
  C   C18       1.0  0.7313255091822737  0.19775012441841347  0.693852011537934  1.0000
  C   C19       1.0  0.12279619077884568  0.8332326852687021  0.3330065937549041  1.0000
  C   C20       1.0  0.8772038098206641  0.1667673139639007  0.6669934061645015  1.0000
  C   C21       1.0  0.4860789537147495  0.3372674975163153  0.1448346096594906  1.0000
  C   C22       1.0  0.513921046377269  0.6627325027636222  0.8551653902997681  1.0000
  C   C23       1.0  0.3376539349845714  0.4233813795923677  0.18763218959609199  1.0000
  C   C24       1.0  0.6623460651074474  0.5766186206875697  0.8123678103631669  1.0000
  C   C25       1.0  0.24285728257378073  0.48901234292586293  0.10917386386846695  1.0000
  C   C26       1.0  0.757142717518238  0.5109876573540745  0.8908261360907919  1.0000
  C   C27       1.0  0.2944949404239568  0.4684336125088553  0.9877373489489243  1.0000
  C   C28       1.0  0.7055050596680619  0.531566387771082  0.012262651010334647  1.0000
  C   C29       1.0  0.44141002154235837  0.3813585527105241  0.9446884559881016  1.0000
  C   C30       1.0  0.5585899790571516  0.6186414465220786  0.05531154393130406  1.0000
  C   C31       1.0  0.5371678760798497  0.31640492187066593  0.022392190255978068  1.0000
  C   C32       1.0  0.46283212401216894  0.6835950784092715  0.9776078097032808  1.0000
  C   C33       1.0  0.7492816298503152  0.015389289883803763  0.1450846626479589  1.0000
  C   C34       1.0  0.2507183707491948  0.9846107093487988  0.8549153372714466  1.0000
  C   C35       1.0  0.6496069585066565  0.9790357167112097  0.11085672280923083  1.0000
  C   C36       1.0  0.3503930415853622  0.02096428356872769  0.889143277150028  1.0000
  C   C37       1.0  0.6975237980938903  0.8676894640440123  0.03039514921323309  1.0000
  C   C38       1.0  0.3024762025056195  0.13231053518859043  0.9696048507061725  1.0000
  C   C39       1.0  0.8452355447027349  0.7912792067325264  0.9828944125625328  1.0000
  C   C40       1.0  0.1547644553892837  0.20872079354741113  0.017105587396725908  1.0000
  C   C41       1.0  0.9447687977627092  0.827160433525193  0.016097089804906577  1.0000
  C   C42       1.0  0.05523120232930963  0.17283956675474435  0.9839029101543524  1.0000
  C   C43       1.0  0.8975045134554901  0.9384127262353088  0.09690678058768556  1.0000
  C   C44       1.0  0.10249548567683776  0.06158727403769075  0.90309321953194  1.0000
  C   C45       1.0  0.2871117238938751  0.2679027799451101  0.5347235361117587  1.0000
  C   C46       1.0  0.7128882767056348  0.7320972192874927  0.4652764638076469  1.0000
  C   C47       1.0  0.2798791897613622  0.4042286314101907  0.5847940194303941  1.0000
  C   C48       1.0  0.7201208093709657  0.5957713688628088  0.41520598068923154  1.0000
  C   C49       1.0  0.1467292856969475  0.47485168269648426  0.688051163213025  1.0000
  C   C50       1.0  0.8532707143950712  0.5251483175834532  0.31194883674623397  1.0000
  N   N1        1.0  0.7532119720160284  0.1263846422321512  0.3298550369001854  1.0000
  N   N2        1.0  0.24678802807599012  0.8736153580477864  0.6701449630590735  1.0000
  N   N3        1.0  0.5803029681866875  0.338417037958375  0.3284314171393694  1.0000
  N   N4        1.0  0.41969703241282247  0.6615829612742278  0.6715685827800362  1.0000
  O   O1        1.0  0.4891674352689645  0.4724594959730186  0.3606052054060682  1.0000
  O   O2        1.0  0.5108325638633632  0.527540504299981  0.6393947947135574  1.0000
  O   O3        1.0  0.4083018408915535  0.35722826921474327  0.6265966101368545  1.0000
  O   O4        1.0  0.5916981592004653  0.6427717310651941  0.3734033898224044  1.0000
  O   O5        1.0  0.25653905103139957  0.5045413617244885  0.49985449654571745  1.0000
  O   O6        1.0  0.7434609490606192  0.4954586385554489  0.5001455034135414  1.0000
  F   F1        1.0  0.3327354550938129  0.16004570350546174  0.6090441507668166  1.0000
  F   F2        1.0  0.6672645449982058  0.8399542967744755  0.39095584919244225  1.0000
  F   F3        1.0  0.38335763132577017  0.22474136150873905  0.43071443295191314  1.0000
  F   F4        1.0  0.6166423687662484  0.7752586387711984  0.5692855670073458  1.0000
  F   F5        1.0  0.156880870649473  0.28828868770187366  0.5131322688267006  1.0000
  F   F6        1.0  0.8431191299500368  0.7117113115307291  0.48686773109270504  1.0000
  F   F7        1.0  0.14300140698725664  0.3832138521567532  0.7725521545448731  1.0000
  F   F8        1.0  0.8569985931047622  0.6167861481231842  0.22744784541438567  1.0000
  F   F9        1.0  0.1579163157870742  0.5792487271855257  0.7413779881350211  1.0000
  F   F10       1.0  0.8420836843049446  0.4207512730944116  0.25862201182423783  1.0000
  F   F11       1.0  0.01692634852292866  0.5344479297254875  0.6523159518413116  1.0000
  F   F12       1.0  0.9830736515690901  0.4655520705544498  0.3476840481179471  1.0000
