data_image0
_chemical_formula_structural       H72C76N4O14
_chemical_formula_sum              "H72 C76 N4 O14"
_cell_length_a       11.129035179828293
_cell_length_b       13.09882818522233
_cell_length_c       13.278721226140101
_cell_angle_alpha    111.20484300012694
_cell_angle_beta     93.98071419210319
_cell_angle_gamma    112.88448502200873

_space_group_name_H-M_alt    "P 1"
_space_group_IT_number       1

loop_
  _space_group_symop_operation_xyz
  'x, y, z'

loop_
  _atom_site_type_symbol
  _atom_site_label
  _atom_site_symmetry_multiplicity
  _atom_site_fract_x
  _atom_site_fract_y
  _atom_site_fract_z
  _atom_site_occupancy
  H   H1        1.0  0.1661409446078548  0.500399982464234  0.3978737504482118  1.0000
  H   H2        1.0  0.8338590549551063  0.4996000174310261  0.6021262500916862  1.0000
  H   H3        1.0  0.2618701174427803  0.6785234181360884  0.583087050618101  1.0000
  H   H4        1.0  0.7381298821191564  0.3214765817575485  0.4169129491680748  1.0000
  H   H5        1.0  0.2353279008463469  0.6463890751160349  0.7552916542935751  1.0000
  H   H6        1.0  0.76467209916165  0.35361092569205815  0.24470834584349793  1.0000
  H   H7        1.0  0.10929300995333044  0.4340740803954457  0.7410375349545932  1.0000
  H   H8        1.0  0.8907069905101598  0.5659259194998897  0.2589624648844486  1.0000
  H   H9        1.0  0.014517897154278203  0.25701631530458985  0.5562110523444067  1.0000
  H   H10       1.0  0.9854821024076584  0.742983684589047  0.4437889474417692  1.0000
  H   H11       1.0  0.7632923782202548  0.9862045535624695  0.07502751647956185  1.0000
  H   H12       1.0  0.23670762134270618  0.013795446332790716  0.924972484060336  1.0000
  H   H13       1.0  0.620346763249997  0.0652559608561999  0.05855148903532355  1.0000
  H   H14       1.0  0.37965323631193976  0.9347440390374372  0.9414485107508523  1.0000
  H   H15       1.0  0.4442671262038323  0.1268163789875162  0.11672229536309602  1.0000
  H   H16       1.0  0.5557328742596579  0.8731836209078192  0.8832777044759458  1.0000
  H   H17       1.0  0.511583167769718  0.0825493352850122  0.4184601775161376  1.0000
  H   H18       1.0  0.48841683179324286  0.9174506646102479  0.5815398230237603  1.0000
  H   H19       1.0  0.6930115618145519  0.02570899868683894  0.3617159662143579  1.0000
  H   H20       1.0  0.30698843774738477  0.9742910012067981  0.638284033571818  1.0000
  H   H21       1.0  0.22911524790623106  0.1950756013403209  0.2878531097539702  1.0000
  H   H22       1.0  0.7708847525572592  0.8049243985550144  0.7121468900850715  1.0000
  H   H23       1.0  0.23865234971893287  0.08973665711302727  0.16069543497819738  1.0000
  H   H24       1.0  0.7613476498430037  0.9102633427806096  0.8393045648079784  1.0000
  H   H25       1.0  0.3657085850242166  0.24557808373959675  0.22569893980261796  1.0000
  H   H26       1.0  0.6342914154392736  0.7544219161557387  0.7743010600364237  1.0000
  H   H27       1.0  0.46036232791749687  0.5120884330261077  0.12242343564641982  1.0000
  H   H28       1.0  0.5396376716444398  0.4879115668675292  0.877576564139756  1.0000
  H   H29       1.0  0.33454259654614166  0.3966281368485538  0.221937717857344  1.0000
  H   H30       1.0  0.6654574039173485  0.6033718630467816  0.7780622819816978  1.0000
  H   H31       1.0  0.40328822678911014  0.4838230260765455  0.4300887602421489  1.0000
  H   H32       1.0  0.5967117736743801  0.5161769738187899  0.5699112395968928  1.0000
  H   H33       1.0  0.5956630568821604  0.6904792353702615  0.5359249728237488  1.0000
  H   H34       1.0  0.4043369440273899  0.30952076543952994  0.4640750273661901  1.0000
  H   H35       1.0  0.7192706402056059  0.8085947049238548  0.4356534393618242  1.0000
  H   H36       1.0  0.28072936025788425  0.19140529497148057  0.5643465604772177  1.0000
  H   H37       1.0  0.950679544887427  0.9353763755718828  0.09445651472752731  1.0000
  H   H38       1.0  0.04932045467553407  0.06462362432337755  0.9055434858123708  1.0000
  H   H39       1.0  0.06838589868334226  0.8269120298221717  0.09268118472597806  1.0000
  H   H40       1.0  0.9316141008785944  0.17308797007146517  0.9073188150601977  1.0000
  H   H41       1.0  0.2127739061429445  0.7681889379215925  0.18575371453053813  1.0000
  H   H42       1.0  0.7872260934189921  0.2318110619720444  0.8142462852556376  1.0000
  H   H43       1.0  0.16075676876318565  0.9710167597054903  0.5036089185532479  1.0000
  H   H44       1.0  0.8392432307987511  0.02898324018814658  0.4963910812329281  1.0000
  H   H45       1.0  0.00955017611828094  0.02467859739219957  0.40733741071052393  1.0000
  H   H46       1.0  0.9904498234436556  0.9753214025014374  0.592662589075652  1.0000
  H   H47       1.0  0.39655500707103025  0.7565249623889363  0.40934180587143293  1.0000
  H   H48       1.0  0.6034449933924598  0.2434750375063991  0.5906581939676089  1.0000
  H   H49       1.0  0.4098112860744221  0.8188570361635924  0.30813990487452086  1.0000
  H   H50       1.0  0.5901887134875147  0.1811429637300447  0.691860094911655  1.0000
  H   H51       1.0  0.26420430358797303  0.6822737363550019  0.28515529955567065  1.0000
  H   H52       1.0  0.7357956968755172  0.31772626354033345  0.7148447002833711  1.0000
  H   H53       1.0  0.24143202884567205  0.5451620026282671  0.9022146872904202  1.0000
  H   H54       1.0  0.7585679707162647  0.45483799726537  0.09778531249575569  1.0000
  H   H55       1.0  0.37738746907770243  0.5638760790658184  0.9969955773418681  1.0000
  H   H56       1.0  0.6226125304842343  0.43612392082781865  0.003004422444307787  1.0000
  H   H57       1.0  0.21388300339792413  0.4158848576022511  0.05144306434450225  1.0000
  H   H58       1.0  0.7861169966100727  0.584115143205842  0.9485569357925707  1.0000
  H   H59       1.0  0.08523742403466518  0.401985706125301  0.9519792676564022  1.0000
  H   H60       1.0  0.9147625764288249  0.5980142937700343  0.04802073218263957  1.0000
  H   H61       1.0  0.9889878405200534  0.34676047319313513  0.09777668847222705  1.0000
  H   H62       1.0  0.01101215904188321  0.6532395267005019  0.9022233113139487  1.0000
  H   H63       1.0  0.9843795452206501  0.48445086883555327  0.10825840652360826  1.0000
  H   H64       1.0  0.015620454341286462  0.5155491310580836  0.8917415932625674  1.0000
  H   H65       1.0  0.10788096136778218  0.4885783676411423  0.20478025706648983  1.0000
  H   H66       1.0  0.8921190390957079  0.511421632254193  0.7952197427725518  1.0000
  H   H67       1.0  0.4373199016149863  0.7486934304770441  0.960399955303886  1.0000
  H   H68       1.0  0.5626800979479747  0.251306569418216  0.03960004523601201  1.0000
  H   H69       1.0  0.43272534711634336  0.787666510247996  0.10275982644296315  1.0000
  H   H70       1.0  0.5672746524455934  0.21233348964564097  0.8972401733432127  1.0000
  H   H71       1.0  0.2974733266184104  0.7671247872962424  0.006068732093879013  1.0000
  H   H72       1.0  0.7025266738450798  0.23287521259909302  0.9939312677451628  1.0000
  C   C1        1.0  0.9253787544408775  0.07878837323676793  0.2211692337333443  1.0000
  C   C2        1.0  0.07462124512208351  0.9212116266584923  0.7788307668065536  1.0000
  C   C3        1.0  0.9969245295134719  0.16953344623543953  0.17505833107622673  1.0000
  C   C4        1.0  0.0030754700484648544  0.8304665536581974  0.8249416687099492  1.0000
  C   C5        1.0  0.028737778183855655  0.26153777243681176  0.35911475215626376  1.0000
  C   C6        1.0  0.9712622213780809  0.7384622274568251  0.640885247629912  1.0000
  C   C7        1.0  0.08551080620677576  0.3678235406797405  0.4660107147443036  1.0000
  C   C8        1.0  0.9144891933561852  0.6321764592155197  0.5339892857955943  1.0000
  C   C9        1.0  0.1550491969427833  0.4866720915483586  0.4734966104094539  1.0000
  C   C10       1.0  0.8449508026191533  0.5133279083452784  0.526503389376722  1.0000
  C   C11       1.0  0.20849696229506562  0.5863650734430043  0.57751066491284  1.0000
  C   C12       1.0  0.7915030372668712  0.41363492645063277  0.42248933487333584  1.0000
  C   C13       1.0  0.19287415655800308  0.5680294068051096  0.6741278345565468  1.0000
  C   C14       1.0  0.807125843905487  0.43197059309022573  0.3258721652824951  1.0000
  C   C15       1.0  0.12281015267455853  0.4495134975396727  0.6664366174204759  1.0000
  C   C16       1.0  0.8771898468873781  0.5504865023539643  0.33356338236569993  1.0000
  C   C17       1.0  0.06923858135485021  0.34963713421685194  0.5631835595393161  1.0000
  C   C18       1.0  0.9307614191096643  0.6503628656801067  0.43681644105344786  1.0000
  C   C19       1.0  0.7705429800777882  0.9998715784951074  0.16248906942349114  1.0000
  C   C20       1.0  0.22945702038570198  0.00012842140022785475  0.8375109304155506  1.0000
  C   C21       1.0  0.6682255806083796  0.03922996027493109  0.204689038865613  1.0000
  C   C22       1.0  0.33177441895458154  0.960770039620329  0.7953109616742849  1.0000
  C   C23       1.0  0.5975267757244612  0.06948296149371454  0.1381412761742864  1.0000
  C   C24       1.0  0.40247322383747547  0.9305170383999224  0.8618587236118894  1.0000
  C   C25       1.0  0.49731371274069275  0.10373554238377536  0.17026164225853554  1.0000
  C   C26       1.0  0.5026862872673041  0.8962644584243178  0.8297383578785374  1.0000
  C   C27       1.0  0.4659106289937742  0.10732290708222283  0.27135744566899833  1.0000
  C   C28       1.0  0.5340893705681624  0.8926770928114139  0.7286425541171775  1.0000
  C   C29       1.0  0.5370899119235377  0.0789080581542201  0.33995988508909103  1.0000
  C   C30       1.0  0.4629100876394233  0.9210919417410401  0.660040115450807  1.0000
  C   C31       1.0  0.6377400099991468  0.04639615993296783  0.3074581106226716  1.0000
  C   C32       1.0  0.36225998956278993  0.9536038399606692  0.6925418891635043  1.0000
  C   C33       1.0  0.2972018892660369  0.16872200387956823  0.24083054547748975  1.0000
  C   C34       1.0  0.7027981111974533  0.8312779960157672  0.759169454361552  1.0000
  C   C35       1.0  0.779825187508507  0.8853788848314488  0.1658209277857073  1.0000
  C   C36       1.0  0.22017481295498312  0.11462111506388664  0.8341790720533345  1.0000
  C   C37       1.0  0.7025820415409136  0.7679748961461852  0.062507477232325  1.0000
  C   C38       1.0  0.29741795802102294  0.23202510374745172  0.9374925225538508  1.0000
  C   C39       1.0  0.6647744134056806  0.7410451007023761  0.21558248983988998  1.0000
  C   C40       1.0  0.33522558615625625  0.25895489919126097  0.784417509946286  1.0000
  C   C41       1.0  0.5975566859303152  0.6677465285494745  0.27292600489374086  1.0000
  C   C42       1.0  0.4024433145331749  0.3322534713458608  0.7270739949453009  1.0000
  C   C43       1.0  0.4900936703580046  0.5508735147505381  0.2129504917324048  1.0000
  C   C44       1.0  0.5099063296499923  0.44912648605755484  0.7870495084046683  1.0000
  C   C45       1.0  0.4198058885914565  0.4855343079420094  0.2696146328656266  1.0000
  C   C46       1.0  0.5801941109704802  0.5144656919516276  0.7303853669205492  1.0000
  C   C47       1.0  0.4585049486193376  0.5347220867290331  0.38562925943502735  1.0000
  C   C48       1.0  0.5414950518441526  0.4652779131663022  0.6143707404040144  1.0000
  C   C49       1.0  0.5671573351874095  0.650313773565721  0.4454132842351495  1.0000
  C   C50       1.0  0.43284266572316527  0.3496862272456938  0.5545867167085117  1.0000
  C   C51       1.0  0.6363187850242132  0.7174369319391982  0.38981074004711874  1.0000
  C   C52       1.0  0.36368121543927695  0.28256306795613717  0.610189259791923  1.0000
  C   C53       1.0  0.9364044275272405  0.9552050688936774  0.17942875767993988  1.0000
  C   C54       1.0  0.06359557293727401  0.044794931003281115  0.820571242912824  1.0000
  C   C55       1.0  0.029380386411388296  0.9305080525953683  0.2431450438734337  1.0000
  C   C56       1.0  0.9706196140521018  0.06949194729996702  0.7568549559656081  1.0000
  C   C57       1.0  0.08817005539318151  0.8585103429717774  0.18300443797613916  1.0000
  C   C58       1.0  0.9118299450703088  0.14148965692355808  0.8169955618629026  1.0000
  C   C59       1.0  0.17112753514098414  0.8261663723725454  0.23553593767835462  1.0000
  C   C60       1.0  0.828872465322506  0.17383362752278997  0.7644640621606872  1.0000
  C   C61       1.0  0.1982595184777898  0.8683560888096159  0.35159746204670084  1.0000
  C   C62       1.0  0.801740481530207  0.13164391199847725  0.6484025380903722  1.0000
  C   C63       1.0  0.13963506510589915  0.9400393849759501  0.4133674803951049  1.0000
  C   C64       1.0  0.860364935357591  0.05996061491938523  0.5866325194439369  1.0000
  C   C65       1.0  0.05538963663766497  0.9696560750272846  0.35943561184584977  1.0000
  C   C66       1.0  0.9446103638258252  0.030343924868050848  0.6405643879931919  1.0000
  C   C67       1.0  0.3404703329083515  0.7707704283871432  0.3489241549411027  1.0000
  C   C68       1.0  0.6595296680022231  0.22922957242427147  0.6510758460025583  1.0000
  C   C69       1.0  0.30254843088134825  0.5983242200914491  0.9893639099489064  1.0000
  C   C70       1.0  0.6974515686805884  0.4016757798021878  0.010636089837269413  1.0000
  C   C71       1.0  0.14374377568583624  0.45392344877761376  0.040013236666239384  1.0000
  C   C72       1.0  0.856256224777654  0.5460765511177216  0.9599867631728024  1.0000
  C   C73       1.0  0.050921395663580435  0.44328589173435085  0.1175242969695166  1.0000
  C   C74       1.0  0.9490786038983562  0.5567141081592861  0.8824757028166592  1.0000
  C   C75       1.0  0.37147938952746373  0.733309342849637  0.016520318710058303  1.0000
  C   C76       1.0  0.6285206109360265  0.2666906570456984  0.9834796811289835  1.0000
  N   N1        1.0  0.9560855126945771  0.1494164953713309  0.3396470451919874  1.0000
  N   N2        1.0  0.04391448776891302  0.8505835045240044  0.6603529546470543  1.0000
  N   N3        1.0  0.7438127991716026  0.8560078352026108  0.2575028827483068  1.0000
  N   N4        1.0  0.2561872003903341  0.14399216469102605  0.742497117037869  1.0000
  O   O1        1.0  0.0010202262017836498  0.15527969077754863  0.08022827919374916  1.0000
  O   O2        1.0  0.9989797733611774  0.8447203091177116  0.9197717213461487  1.0000
  O   O3        1.0  0.05878405912675502  0.2838243171623914  0.2651565762302116  1.0000
  O   O4        1.0  0.9412159413377594  0.7161756827345671  0.7348434243625522  1.0000
  O   O5        1.0  0.3688795536840148  0.1381378512196232  0.3094443051498606  1.0000
  O   O6        1.0  0.6311204467804997  0.8618621486773355  0.6905556954429033  1.0000
  O   O7        1.0  0.6934135779056675  0.7469213087315048  0.9649288800715169  1.0000
  O   O8        1.0  0.30658642165626915  0.2530786911621322  0.03507111971465893  1.0000
  O   O9        1.0  0.6349244093275248  0.6786193963619258  0.09830118540673714  1.0000
  O   O10       1.0  0.36507559023441194  0.32138060353171116  0.9016988143794387  1.0000
  O   O11       1.0  0.27991061795550554  0.8436935377343493  0.4110801775677531  1.0000
  O   O12       1.0  0.7200893816064311  0.1563064621592877  0.5889198222184228  1.0000
  O   O13       1.0  0.21786942903898057  0.5803306201186685  0.0633813258486721  1.0000
  O   O14       1.0  0.7821305705229561  0.4196693797749684  0.9366186739375036  1.0000
