data_image0
_chemical_formula_structural       H68C76N40Br4
_chemical_formula_sum              "H68 C76 N40 Br4"
_cell_length_a       5.071511644655559
_cell_length_b       26.465888414454334
_cell_length_c       14.010729525436442
_cell_angle_alpha    90.0
_cell_angle_beta     97.50398896260302
_cell_angle_gamma    90.0

_space_group_name_H-M_alt    "P 1"
_space_group_IT_number       1

loop_
  _space_group_symop_operation_xyz
  'x, y, z'

loop_
  _atom_site_type_symbol
  _atom_site_label
  _atom_site_symmetry_multiplicity
  _atom_site_fract_x
  _atom_site_fract_y
  _atom_site_fract_z
  _atom_site_occupancy
  H   H1        1.0  0.5444394823848498  0.780750471566062  0.7122241548627282  1.0000
  H   H2        1.0  0.9555605181189347  0.280750471461292  0.7877758450233189  1.0000
  H   H3        1.0  0.4555605172186498  0.21924952864347808  0.2877758448166142  1.0000
  H   H4        1.0  0.04443948368163501  0.7192495287482481  0.2122241553900904  1.0000
  H   H5        1.0  0.27717187013111055  0.09194778546224641  0.6522939025798384  1.0000
  H   H6        1.0  0.22282813047307481  0.5919477851891717  0.8477060969800236  1.0000
  H   H7        1.0  0.7228281294723891  0.9080522147472937  0.347706097099504  1.0000
  H   H8        1.0  0.7771718691304248  0.40805221464252367  0.15229390269931875  1.0000
  H   H9        1.0  0.040677033090981  0.8409846641627994  0.5680003232217946  1.0000
  H   H10       1.0  0.45932296773370407  0.3409846640580293  0.9319996770578295  1.0000
  H   H11       1.0  0.9593229667330184  0.15901533566889595  0.43199967717730975  1.0000
  H   H12       1.0  0.5406770320902953  0.659015335773666  0.068000323341275  1.0000
  H   H13       1.0  0.05128207583528516  0.16021605145452755  0.7354801977178221  1.0000
  H   H14       1.0  0.4487179230128294  0.6602160511814528  0.764519802547497  1.0000
  H   H15       1.0  0.9487179239887141  0.8397839487550126  0.26451980268128233  1.0000
  H   H16       1.0  0.5512820768111698  0.33978394865024253  0.23548019785160737  1.0000
  H   H17       1.0  0.75942642580574  0.20111750365776423  0.5241391540258322  1.0000
  H   H18       1.0  0.7405735746980444  0.7011175033846895  0.9758608458602147  1.0000
  H   H19       1.0  0.24057357379775954  0.798882496551776  0.4758608456535101  1.0000
  H   H20       1.0  0.2594264271025253  0.2988824964470058  0.024139154553194552  1.0000
  H   H21       1.0  0.3182843354253818  0.5111657673509814  0.5235586799460703  1.0000
  H   H22       1.0  0.18171566517880341  0.011165767246211402  0.9764413196137915  1.0000
  H   H23       1.0  0.6817156641781178  0.48883423285855865  0.4764413197332721  1.0000
  H   H24       1.0  0.8182843344246961  0.9888342329633287  0.023558680065550685  1.0000
  H   H25       1.0  0.5820922696997332  0.6085690141126546  0.3345443281204662  1.0000
  H   H26       1.0  0.9179077289030807  0.10856901400788448  0.1654556716783566  1.0000
  H   H27       1.0  0.4179077299037665  0.3914309857190408  0.6654556715588763  1.0000
  H   H28       1.0  0.08209227092091848  0.8914309858238109  0.8345443287207477  1.0000
  H   H29       1.0  0.4999747745613318  0.5430073287149202  0.33524377761663166  1.0000
  H   H30       1.0  2.5224141882940436e-05  0.043007328610150025  0.16475622185600602  1.0000
  H   H31       1.0  0.5000252250421677  0.4569926711167752  0.6647562220627106  1.0000
  H   H32       1.0  0.9999747754616167  0.9569926712215452  0.8352437778233364  1.0000
  H   H33       1.0  0.7676574062670942  0.5668716332154657  0.4169623079451767  1.0000
  H   H34       1.0  0.7323425925562193  0.06687163311069562  0.08303769257340801  1.0000
  H   H35       1.0  0.23234259355690495  0.4331283669940745  0.5830376924539276  1.0000
  H   H36       1.0  0.26765740726778  0.9331283667209997  0.9169623078256963  1.0000
  H   H37       1.0  0.41180676816932554  0.8591970053641155  0.744819584759945  1.0000
  H   H38       1.0  0.08819323243485978  0.3591970056371902  0.755180414799917  1.0000
  H   H39       1.0  0.588193231434174  0.14080299446757988  0.2551804149193974  1.0000
  H   H40       1.0  0.9118067671686398  0.64080299457235  0.24481958487942534  1.0000
  H   H41       1.0  0.9335947306127035  0.5905768774972845  0.6984063878176837  1.0000
  H   H42       1.0  0.56640526813501  0.0905768773925145  0.8015936127738201  1.0000
  H   H43       1.0  0.0664052692112957  0.40942312271225556  0.3015936125814206  1.0000
  H   H44       1.0  0.43359473168898915  0.9094231228170256  0.1984063876252841  1.0000
  H   H45       1.0  0.11256271982350227  0.5328294277965105  0.6948737023542494  1.0000
  H   H46       1.0  0.38743728100118274  0.03282942769174046  0.8051262979253747  1.0000
  H   H47       1.0  0.8874372819770673  0.46717057203518475  0.30512629805916003  1.0000
  H   H48       1.0  0.6125627188228165  0.9671705721399548  0.19487370247372968  1.0000
  H   H49       1.0  0.7994455858078351  0.5410464196690081  0.6234511045274507  1.0000
  H   H50       1.0  0.7005544146959495  0.04104641994208293  0.8765488953585964  1.0000
  H   H51       1.0  0.2005544137956646  0.45895358016268717  0.37654889515189166  1.0000
  H   H52       1.0  0.29944558710462027  0.9589535802674573  0.12345110505481298  1.0000
  H   H53       1.0  0.0728126996374139  0.9339823395650648  0.5536036197929536  1.0000
  H   H54       1.0  0.4271873011872711  0.43398233946029463  0.9463963804866704  1.0000
  H   H55       1.0  0.9271873001865854  0.06601766064447542  0.4463963806061508  1.0000
  H   H56       1.0  0.5728126986367281  0.5660176607492455  0.053603619912433925  1.0000
  H   H57       1.0  0.4400700060256305  0.951766593115493  0.7282697034269595  1.0000
  H   H58       1.0  0.05992999282248407  0.45176659301072297  0.7717302968383595  1.0000
  H   H59       1.0  0.5599299937983687  0.048233407094047075  0.27173029697214485  1.0000
  H   H60       1.0  0.9400700070015152  0.5482334071988171  0.22826970356074483  1.0000
  H   H61       1.0  0.6215911761022167  0.11211557849610837  0.5499016642369035  1.0000
  H   H62       1.0  0.8784088244015678  0.6121155786008785  0.9500983356491436  1.0000
  H   H63       1.0  0.3784088235012829  0.8878844213355869  0.45009833544243893  1.0000
  H   H64       1.0  0.12159117520193187  0.38788442123081684  0.049901664030198786  1.0000
  H   H65       1.0  0.6004336724099436  0.30699442288748563  0.5792176154966718  1.0000
  H   H66       1.0  0.8995663280938409  0.8069944226144109  0.9207823843893752  1.0000
  H   H67       1.0  0.3995663274140557  0.6930055773220546  0.42078238490243247  1.0000
  H   H68       1.0  0.10043367348622913  0.19300557721728445  0.07921761530427217  1.0000
  C   C1        1.0  0.4747526338732045  0.23011322743557955  0.6140886059074354  1.0000
  C   C2        1.0  0.02524736497491009  0.7301132275403497  0.8859113943578837  1.0000
  C   C3        1.0  0.5252473659507948  0.7698867727739606  0.38591139449166906  1.0000
  C   C4        1.0  0.9747526348490893  0.26988677266919053  0.11408860604122067  1.0000
  C   C5        1.0  0.01064142761788641  0.6715070944035951  0.5673862088978121  1.0000
  C   C6        1.0  0.48935857123022813  0.17150709429882502  0.932613791367507  1.0000
  C   C7        1.0  0.9893585719856133  0.32849290580594503  0.4326137907815302  1.0000
  C   C8        1.0  0.5106414285937712  0.8284929059107151  0.06738620903159744  1.0000
  C   C9        1.0  0.7962698954058155  0.7517252305474964  0.6270389508844457  1.0000
  C   C10       1.0  0.7037301050979688  0.2517252304427264  0.8729610490016013  1.0000
  C   C11       1.0  0.20373010617425438  0.2482747692841988  0.3729610488092016  1.0000
  C   C12       1.0  0.29626989472603044  0.7482747693889689  0.12703895139750307  1.0000
  C   C13       1.0  0.758973307633674  0.9481320863687833  0.6396819055827561  1.0000
  C   C14       1.0  0.7410266928701104  0.4481320862640133  0.860318094303291  1.0000
  C   C15       1.0  0.2410266919698256  0.0518679134629119  0.3603180940965863  1.0000
  C   C16       1.0  0.2589733087099596  0.551867913567682  0.13968190539035635  1.0000
  C   C17       1.0  0.3311712710155168  0.13135042230818963  0.6437153995480168  1.0000
  C   C18       1.0  0.16882872958866849  0.6313504220351148  0.8562846000118451  1.0000
  C   C19       1.0  0.6688287285879828  0.8686495779013506  0.35628460013132557  1.0000
  C   C20       1.0  0.8311712719914015  0.3686495777965804  0.14371539968180216  1.0000
  C   C21       1.0  0.9104709357532151  0.8649793791731284  0.6034797860476483  1.0000
  C   C22       1.0  0.5895290647505692  0.3649793794462032  0.8965202138383986  1.0000
  C   C23       1.0  0.08952906407078405  0.13502062065856693  0.39652021435145607  1.0000
  C   C24       1.0  0.41047093485293035  0.635020620763337  0.10347978584094361  1.0000
  C   C25       1.0  0.20350461648569734  0.16865044959391087  0.6898096993319232  1.0000
  C   C26       1.0  0.2964953821419175  0.6686504493208362  0.8101903002136338  1.0000
  C   C27       1.0  0.7964953831178023  0.8313495506156293  0.3101903003474191  1.0000
  C   C28       1.0  0.7035046174615821  0.33134955051085924  0.18980969946570858  1.0000
  C   C29       1.0  0.723220897788573  0.8433375649619274  0.6567640259342109  1.0000
  C   C30       1.0  0.776779100738641  0.3433375648571572  0.8432359739375311  1.0000
  C   C31       1.0  0.2767791018149265  0.1566624352476129  0.34323597374513143  1.0000
  C   C32       1.0  0.2232208990853583  0.656662435352383  0.15676402646157325  1.0000
  C   C33       1.0  0.6070238787041357  0.19219247282936425  0.569246964182366  1.0000
  C   C34       1.0  0.8929761217996488  0.6921924729341343  0.930753035703681  1.0000
  C   C35       1.0  0.3929761211198636  0.807807527002331  0.4307530362167384  1.0000
  C   C36       1.0  0.10702387780385085  0.30780752727540583  0.06924696397566134  1.0000
  C   C37       1.0  0.38211417822752214  0.5857235225677804  0.45246380206613435  1.0000
  C   C38       1.0  0.11788582245226292  0.08572352284085516  0.04753619742080829  1.0000
  C   C39       1.0  0.6178858233525477  0.4142764772639149  0.5475361976275129  1.0000
  C   C40       1.0  0.8821141771512366  0.914276477368685  0.9524638022585341  1.0000
  C   C41       1.0  0.27690154867728606  0.21887444355868724  0.6736269864546229  1.0000
  C   C42       1.0  0.2230984501708285  0.7188744436634573  0.8263730138106959  1.0000
  C   C43       1.0  0.7230984511467132  0.781125556273008  0.3263730139444813  1.0000
  C   C44       1.0  0.7769015494326711  0.2811255561682379  0.1736269858686464  1.0000
  C   C45       1.0  0.28320292689515214  0.5513760460816508  0.5167754242836483  1.0000
  C   C46       1.0  0.21679707392953293  0.051376045976880697  0.9832245759959757  1.0000
  C   C47       1.0  0.7167970749054176  0.4486239541278894  0.483224576129761  1.0000
  C   C48       1.0  0.7832029258944664  0.9486239538548146  0.016775424403128677  1.0000
  C   C49       1.0  0.1275276884777336  0.5788580965085983  0.5719890087234218  1.0000
  C   C50       1.0  0.37247231014988125  0.07885809678167308  0.928010990822135  1.0000
  C   C51       1.0  0.872472311125766  0.421141903323097  0.42801099095592043  1.0000
  C   C52       1.0  0.6275276894536183  0.9211419034278671  0.07198900885720722  1.0000
  C   C53       1.0  0.5673813444666486  0.5755348935001565  0.38050277435868046  1.0000
  C   C54       1.0  0.9326186541361652  0.07553489377323126  0.11949722544014221  1.0000
  C   C55       1.0  0.43261865513685094  0.42446510633153883  0.6194972253206619  1.0000
  C   C56       1.0  0.06738134546733444  0.9244651064363089  0.8805027742392002  1.0000
  C   C57       1.0  0.5562208681228847  0.8753845341291056  0.7024100800875221  1.0000
  C   C58       1.0  0.9437791326013992  0.37538453402433547  0.7975899205182868  1.0000
  C   C59       1.0  0.44377913170111444  0.12461546608043457  0.2975899203115822  1.0000
  C   C60       1.0  0.05622086919917033  0.6246154658073597  0.2024100798951225  1.0000
  C   C61       1.0  0.9857093003169766  0.5602276000643259  0.6515952423097052  1.0000
  C   C62       1.0  0.514290698430737  0.060227599959555865  0.8484047582817987  1.0000
  C   C63       1.0  0.014290699507022657  0.43977240014521424  0.348404758089399  1.0000
  C   C64       1.0  0.4857093013932622  0.9397724002499843  0.15159524211730563  1.0000
  C   C65       1.0  0.927822848526884  0.9172873504122092  0.5950384978164638  1.0000
  C   C66       1.0  0.5721771519769003  0.417287350685284  0.9049615020695833  1.0000
  C   C67       1.0  0.07217715305318598  0.08271264941948608  0.40496150187718366  1.0000
  C   C68       1.0  0.4278228476265992  0.5827126495242562  0.09503849760975899  1.0000
  C   C69       1.0  0.572377244431917  0.9275432774285023  0.6934532110724845  1.0000
  C   C70       1.0  0.9276227560718674  0.4275432773237322  0.8065467888135625  1.0000
  C   C71       1.0  0.42762275517158255  0.07245672240319302  0.30654678860685786  1.0000
  C   C72       1.0  0.07237724375213189  0.5724567225079631  0.19345321158554188  1.0000
  C   C73       1.0  0.5295630792434284  0.14301636282622554  0.5849238616236497  1.0000
  C   C74       1.0  0.9704369212603559  0.6430163629309956  0.9150761382623972  1.0000
  C   C75       1.0  0.4704369203600711  0.8569836370054698  0.41507613805569255  1.0000
  C   C76       1.0  0.029563080540213664  0.35698363727854454  0.08492386215101214  1.0000
  N   N1        1.0  0.9879018548380434  0.7573917431410466  0.5682479646131041  1.0000
  N   N2        1.0  0.512098145665741  0.2573917430362766  0.9317520352729429  1.0000
  N   N3        1.0  0.012098144765456169  0.24260825706849348  0.43175203506623827  1.0000
  N   N4        1.0  0.4879018539377586  0.7426082567954188  0.06824796440639948  1.0000
  N   N5        1.0  0.6848937509962538  0.7914416860671203  0.6669967909633694  1.0000
  N   N6        1.0  0.8151062495075305  0.2914416859623501  0.8330032089226777  1.0000
  N   N7        1.0  0.31510624882774535  0.20855831414241996  0.3330032094357349  1.0000
  N   N8        1.0  0.18489375207253944  0.7085583138693452  0.1669967907709697  1.0000
  N   N9        1.0  0.7974456290833014  0.6652616841830288  0.6148975985335762  1.0000
  N   N10       1.0  0.7025543714204829  0.16526168407825872  0.8851024013524706  1.0000
  N   N11       1.0  0.2025543724967685  0.33473831564866646  0.385102401160071  1.0000
  N   N12       1.0  0.29744562840351635  0.8347383157534365  0.1148975990466337  1.0000
  N   N13       1.0  0.29108815900879104  0.632220206931035  0.46575076493676737  1.0000
  N   N14       1.0  0.20891183991492335  0.13222020720410976  0.0342492352556323  1.0000
  N   N15       1.0  0.7089118408152082  0.3677797929006603  0.5342492354623369  1.0000
  N   N16       1.0  0.7910881596885763  0.8677797930054304  0.96575076442371  1.0000
  N   N17       1.0  0.31063146840744804  0.30113713528873126  0.6678684676732591  1.0000
  N   N18       1.0  0.18936853241723703  0.8011371353935014  0.832131532606365  1.0000
  N   N19       1.0  0.6893685314165512  0.698862864542964  0.3321315327258452  1.0000
  N   N20       1.0  0.810631469162833  0.19886286443819395  0.16786846708728248  1.0000
  N   N21       1.0  0.09918107329966036  0.7159979050486258  0.539325139119151  1.0000
  N   N22       1.0  0.4008189273045249  0.21599790494385573  0.9606748604407109  1.0000
  N   N23       1.0  0.9008189263038392  0.28400209516091435  0.4606748605601912  1.0000
  N   N24       1.0  0.5991810722989747  0.7840020948878396  0.03932513923863149  1.0000
  N   N25       1.0  0.18423854912472287  0.2642023158452195  0.7047358602915672  1.0000
  N   N26       1.0  0.315761449502892  0.7642023155721448  0.7952641392539898  1.0000
  N   N27       1.0  0.8157614504787767  0.7357976843643207  0.29526413938777507  1.0000
  N   N28       1.0  0.6842385501006075  0.23579768425955053  0.2047358604253526  1.0000
  N   N29       1.0  0.4856280136943716  0.28162980525260695  0.6136448925409073  1.0000
  N   N30       1.0  0.01437198690981376  0.7816298049795322  0.8863551070189548  1.0000
  N   N31       1.0  0.5143719878856984  0.7183701949569332  0.38635510715274013  1.0000
  N   N32       1.0  0.9856280126936859  0.21837019485216316  0.11364489266038753  1.0000
  N   N33       1.0  0.6892958471062357  0.7057751936186087  0.6459595094269186  1.0000
  N   N34       1.0  0.8107041533975486  0.20577519351383863  0.8540404904591284  1.0000
  N   N35       1.0  0.31070415249726385  0.2942248065909315  0.35404049025242373  1.0000
  N   N36       1.0  0.1892958464264506  0.7942248063178567  0.14595950993997595  1.0000
  N   N37       1.0  0.13565474123656765  0.6279570876193711  0.5385053392091401  1.0000
  N   N38       1.0  0.3643452573910473  0.12795708789244595  0.961494660336417  1.0000
  N   N39       1.0  0.864345258366932  0.37204291221232416  0.46149466047020227  1.0000
  N   N40       1.0  0.6356547422124522  0.8720429123170942  0.03850533934292542  1.0000
  Br  Br1       1.0  0.7930540095831089  0.019781863045793935  0.6311489758226596  1.0000
  Br  Br2       1.0  0.7069459891646046  0.5197818631505641  0.8688510247688443  1.0000
  Br  Br3       1.0  0.20694599024089028  0.9802181367859013  0.36885102457644475  1.0000
  Br  Br4       1.0  0.29305401065939457  0.4802181366811312  0.13114897563025993  1.0000
