data_image0
_chemical_formula_structural       H38C38N2O10Cl2
_chemical_formula_sum              "H38 C38 N2 O10 Cl2"
_cell_length_a       6.5241662352517285
_cell_length_b       8.730515805301481
_cell_length_c       16.50110327602021
_cell_angle_alpha    100.49478030726856
_cell_angle_beta     92.236694192915
_cell_angle_gamma    106.64256252429603

_space_group_name_H-M_alt    "P 1"
_space_group_IT_number       1

loop_
  _space_group_symop_operation_xyz
  'x, y, z'

loop_
  _atom_site_type_symbol
  _atom_site_label
  _atom_site_symmetry_multiplicity
  _atom_site_fract_x
  _atom_site_fract_y
  _atom_site_fract_z
  _atom_site_occupancy
  H   H1        1.0  0.25138996746567727  0.7320851062880841  0.20047612220143704  1.0000
  H   H2        1.0  0.7486100320300303  0.2679148942372703  0.7995238775668796  1.0000
  H   H3        1.0  0.31033117702791974  0.7998857679594038  0.35397394076811123  1.0000
  H   H4        1.0  0.6896688224677877  0.20011423256595057  0.6460260590002054  1.0000
  H   H5        1.0  0.12619376414504055  0.28091740245723723  0.3510878316896718  1.0000
  H   H6        1.0  0.8738062348863177  0.719082596872799  0.6489121680790421  1.0000
  H   H7        1.0  0.07187378264994032  0.2330788570773672  0.19732871116387163  1.0000
  H   H8        1.0  0.9281262183766913  0.7669211434431716  0.8026712886046449  1.0000
  H   H9        1.0  0.4164114525851245  0.8908430966777389  0.6357386086402084  1.0000
  H   H10       1.0  0.5835885464462338  0.10915690265229736  0.3642613911285055  1.0000
  H   H11       1.0  0.483819462363938  0.9318760984200478  0.7869888082769748  1.0000
  H   H12       1.0  0.5161805366674204  0.06812390090998847  0.21301119149173905  1.0000
  H   H13       1.0  0.2973072384055484  0.4088872608700615  0.7686352749565689  1.0000
  H   H14       1.0  0.7026927610901591  0.5911127396552929  0.23136472481174777  1.0000
  H   H15       1.0  0.23008579373812377  0.3691308967387342  0.6156255924804719  1.0000
  H   H16       1.0  0.7699142054486288  0.6308691028385521  0.3843744079074801  1.0000
  H   H17       1.0  0.5602528674603231  0.8185875005348009  0.9835715992142434  1.0000
  H   H18       1.0  0.4397471337217028  0.18141250023298808  0.016428401173511516  1.0000
  H   H19       1.0  0.6771904130001506  0.9083031992307197  0.900734339798518  1.0000
  H   H20       1.0  0.322809586495557  0.09169680129463477  0.09926565996979865  1.0000
  H   H21       1.0  0.4096304233136319  0.9097598706438829  0.9232697442735313  1.0000
  H   H22       1.0  0.5903695772486505  0.09024012868133797  0.07673025549538258  1.0000
  H   H23       1.0  0.9624316797232144  0.45330589471729527  0.08806016668605775  1.0000
  H   H24       1.0  0.037568319308143854  0.546694104612741  0.9119398330826561  1.0000
  H   H25       1.0  0.11866272699937434  0.3159733200207916  0.08199360549903675  1.0000
  H   H26       1.0  0.8813372720319839  0.6840266793092447  0.9180063942696771  1.0000
  H   H27       1.0  0.269492158381476  0.505246236267298  0.9947252039828022  1.0000
  H   H28       1.0  0.7305078408052765  0.4947537633099885  0.005274796405150005  1.0000
  H   H29       1.0  0.2758660310716535  0.679216150698568  0.0708602860172891  1.0000
  H   H30       1.0  0.724133969490629  0.32078384862665277  0.9291397137516246  1.0000
  H   H31       1.0  0.4544809938191919  0.562096105449102  0.08443192959864385  1.0000
  H   H32       1.0  0.5455190056765156  0.4379038950762522  0.9155680701696728  1.0000
  H   H33       1.0  0.8014612861361514  0.9540253982167781  0.6231821140108982  1.0000
  H   H34       1.0  0.19853871489048017  0.04597460230376075  0.37681788575761843  1.0000
  H   H35       1.0  0.19281098088317386  0.08270570817424586  0.6417887284177016  1.0000
  H   H36       1.0  0.8071890196791086  0.9172942911509749  0.3582112713512122  1.0000
  H   H37       1.0  0.6041219352781184  0.8687739928066605  0.4819559121637418  1.0000
  H   H38       1.0  0.3958780642175891  0.1312260077186939  0.5180440876045749  1.0000
  C   C1        1.0  0.22923474450936107  0.6375319962719049  0.23657910174792188  1.0000
  C   C2        1.0  0.7707652545219972  0.3624680030581312  0.7634208980207919  1.0000
  C   C3        1.0  0.26144513047514906  0.6730856787657815  0.32167751002375894  1.0000
  C   C4        1.0  0.7385548685562092  0.32691432056425457  0.6783224897449548  1.0000
  C   C5        1.0  0.22699527470367847  0.5459505533325456  0.3663697464261575  1.0000
  C   C6        1.0  0.7730047263229531  0.45404944718799317  0.6336302533423591  1.0000
  C   C7        1.0  0.1570034002251121  0.3840657188680232  0.3202419410102  1.0000
  C   C8        1.0  0.8429966008015195  0.6159342816525156  0.6797580587583166  1.0000
  C   C9        1.0  0.12703143304179143  0.3555570167988023  0.2352608106607564  1.0000
  C   C10       1.0  0.8729685679848401  0.6444429837217365  0.7647391891077602  1.0000
  C   C11       1.0  0.2602868488317274  0.5781653658870222  0.4528114690829466  1.0000
  C   C12       1.0  0.7397131521949042  0.4218346346335167  0.5471885306855699  1.0000
  C   C13       1.0  0.28996447460910224  0.6035021543872371  0.5283155625076784  1.0000
  C   C14       1.0  0.7100355244222559  0.39649784494279916  0.47168443726103554  1.0000
  C   C15       1.0  0.3236954479448448  0.6275092338044261  0.6148769022107347  1.0000
  C   C16       1.0  0.6763045515508629  0.3724907667209283  0.38512309755758206  1.0000
  C   C17       1.0  0.39360750256588556  0.7856031681675859  0.6649194134060151  1.0000
  C   C18       1.0  0.6063924964654727  0.2143968311624502  0.33508058636269866  1.0000
  C   C19       1.0  0.4308874808036957  0.8087148875701524  0.7502287445064543  1.0000
  C   C20       1.0  0.5691125186920118  0.19128511295520198  0.24977125526186233  1.0000
  C   C21       1.0  0.39837652596533124  0.6720591106885092  0.7873100846246325  1.0000
  C   C22       1.0  0.6016234750613004  0.32794088983202974  0.21268991514388413  1.0000
  C   C23       1.0  0.3226620818245906  0.5132258030935481  0.738652520648254  1.0000
  C   C24       1.0  0.6773379193574353  0.48677419767424074  0.26134747973950073  1.0000
  C   C25       1.0  0.2868620922368218  0.49154693450556747  0.6537635431925899  1.0000
  C   C26       1.0  0.7131379069499306  0.508453065071719  0.3462364571953623  1.0000
  C   C27       1.0  0.5264946902329954  0.8407164165014998  0.9220298239871425  1.0000
  C   C28       1.0  0.4735053089537571  0.1592835830757866  0.07797017640080965  1.0000
  C   C29       1.0  0.12356751174202794  0.4437747023947346  0.10230473476020562  1.0000
  C   C30       1.0  0.8764324877536795  0.5562252981306198  0.897695265008111  1.0000
  C   C31       1.0  0.2918116030985117  0.5557441728088259  0.0614473977390885  1.0000
  C   C32       1.0  0.7081883979281199  0.4442558277117129  0.938552602029428  1.0000
  C   C33       1.0  0.8873687861918859  0.9738380645459895  0.5688446193803303  1.0000
  C   C34       1.0  0.11263121483474568  0.02616193597454926  0.43115538038818635  1.0000
  C   C35       1.0  0.10984581526435523  0.0466303971515256  0.5794647549023371  1.0000
  C   C36       1.0  0.8901541859176706  0.9533696036162633  0.42053524548541776  1.0000
  C   C37       1.0  0.7775283936015301  0.9272566712124992  0.48962369229251945  1.0000
  C   C38       1.0  0.22247160589417736  0.07274332931285514  0.5103763074757972  1.0000
  N   N1        1.0  0.16422466344361972  0.4808470418342465  0.19414024444672706  1.0000
  N   N2        1.0  0.8357753362074819  0.519152958938358  0.8058597559408278  1.0000
  O   O1        1.0  0.925281637074376  0.04152763717810337  0.7761368699346572  1.0000
  O   O2        1.0  0.07471836257672586  0.9584723635945013  0.22386313045289766  1.0000
  O   O3        1.0  0.30825197942070337  0.15361102411818228  0.796711104632161  1.0000
  O   O4        1.0  0.6917480202303983  0.8463889766544221  0.20328889575539394  1.0000
  O   O5        1.0  0.11996786670093672  0.9967719117782264  0.8905813080411247  1.0000
  O   O6        1.0  0.8800321323304217  0.0032280875518096563  0.10941869172758914  1.0000
  O   O7        1.0  0.08926320544327841  0.26261912268661075  0.8894758995224485  1.0000
  O   O8        1.0  0.9107367955833532  0.7373808778339281  0.11052410024606808  1.0000
  O   O9        1.0  0.4378665195407337  0.6811769378881305  0.8696996791983939  1.0000
  O   O10       1.0  0.5621334794906246  0.3188230614419058  0.1303003205703199  1.0000
  Cl  Cl1       1.0  0.11116733576033806  0.11393060072644642  0.8382332629435597  1.0000
  Cl  Cl2       1.0  0.8888326649573386  0.8860693988460244  0.16176673744459236  1.0000
