data_image0
_chemical_formula_structural       H56C56N24O20S8
_chemical_formula_sum              "H56 C56 N24 O20 S8"
_cell_length_a       12.612741897519362
_cell_length_b       10.166352838895255
_cell_length_c       13.758655471137903
_cell_angle_alpha    90.0
_cell_angle_beta     108.58054352972525
_cell_angle_gamma    90.0

_space_group_name_H-M_alt    "P 1"
_space_group_IT_number       1

loop_
  _space_group_symop_operation_xyz
  'x, y, z'

loop_
  _atom_site_type_symbol
  _atom_site_label
  _atom_site_symmetry_multiplicity
  _atom_site_fract_x
  _atom_site_fract_y
  _atom_site_fract_z
  _atom_site_occupancy
  H   H1        1.0  0.6352339490684358  0.6162452483481572  0.8926799207148931  1.0000
  H   H2        1.0  0.3647660511164616  0.11624524829382385  0.6073200795480712  1.0000
  H   H3        1.0  0.36476605132876533  0.3837547517605095  0.10732007937919412  1.0000
  H   H4        1.0  0.6352339492807394  0.8837547518148428  0.392679920546016  1.0000
  H   H5        1.0  0.6932790831653943  0.45675781802833837  0.9286201045460927  1.0000
  H   H6        1.0  0.30672091701950305  0.9567578180826717  0.5713798957168718  1.0000
  H   H7        1.0  0.3067209163953615  0.5432421820803284  0.07137989530197147  1.0000
  H   H8        1.0  0.6932790833776981  0.04324218202599503  0.4286201043772155  1.0000
  H   H9        1.0  0.5660972899425369  0.5033414933645037  0.9509529926625828  1.0000
  H   H10       1.0  0.43390270940591524  0.0033414933101703656  0.5490470073543584  1.0000
  H   H11       1.0  0.4339027096182189  0.49665850674416306  0.0490470071854813  1.0000
  H   H12       1.0  0.5660972901548406  0.9966585067984963  0.4509529924937057  1.0000
  H   H13       1.0  0.6873190059759198  0.3683497631198616  0.7794630399740454  1.0000
  H   H14       1.0  0.31268099420897755  0.8683497631741951  0.720536960288919  1.0000
  H   H15       1.0  0.31268099442128117  0.6316502369888052  0.22053696012004192  1.0000
  H   H16       1.0  0.6873190053517784  0.13165023693447175  0.27946303955914503  1.0000
  H   H17       1.0  0.35257305069565853  0.056246671649273404  0.32405743041517293  1.0000
  H   H18       1.0  0.6474269499118916  0.5562466717036068  0.1759425702362796  1.0000
  H   H19       1.0  0.6474269497015425  0.9437533284593933  0.6759425696789144  1.0000
  H   H20       1.0  0.3525730504853093  0.44375332840506  0.8240574298578077  1.0000
  H   H21       1.0  0.2410655460458719  0.08541194012840876  0.3791671927084402  1.0000
  H   H22       1.0  0.7589344545636326  0.5854119401827421  0.12083280721676992  1.0000
  H   H23       1.0  0.7589344543513291  0.9145880599802579  0.6208328073856471  1.0000
  H   H24       1.0  0.24106554583356826  0.4145880599259246  0.8791671928773174  1.0000
  H   H25       1.0  0.23404374437237602  0.6634969931589542  0.9025129242291092  1.0000
  H   H26       1.0  0.7659562558125214  0.16349699310462082  0.5974870760338551  1.0000
  H   H27       1.0  0.765956256024825  0.3365030069497125  0.09748707586497807  1.0000
  H   H28       1.0  0.23404374458467964  0.8365030070040459  0.4025129240602321  1.0000
  H   H29       1.0  0.16124593378591068  0.8877260629270772  0.8840106318366643  1.0000
  H   H30       1.0  0.8387540663989869  0.38772606287274386  0.6159893684263001  1.0000
  H   H31       1.0  0.8387540666112903  0.11227393718158951  0.11598936825742302  1.0000
  H   H32       1.0  0.16124593316176913  0.612273936252286  0.3840106314217639  1.0000
  H   H33       1.0  0.838375969425289  0.7253592706114789  0.8713493852171749  1.0000
  H   H34       1.0  0.16162402992316321  0.22535927055714547  0.6286506147997665  1.0000
  H   H35       1.0  0.1616240301354669  0.2746407294971879  0.1286506146308892  1.0000
  H   H36       1.0  0.8383759696375925  0.7746407295515212  0.3713493850482978  1.0000
  H   H37       1.0  0.9245242144567054  0.504185404660517  0.887394735345219  1.0000
  H   H38       1.0  0.07547578489174682  0.004185404606183608  0.6126052646717223  1.0000
  H   H39       1.0  0.07547578510405047  0.4958145954481497  0.11260526450284508  1.0000
  H   H40       1.0  0.924524214669009  0.9958145955024831  0.38739473517634193  1.0000
  H   H41       1.0  0.014814474099036558  0.29029684064366035  0.8597597703657176  1.0000
  H   H42       1.0  0.9851855260858609  0.7902968406979938  0.6402402298972468  1.0000
  H   H43       1.0  0.9851855262981645  0.7097031594650064  0.1402402297283697  1.0000
  H   H44       1.0  0.014814474311340194  0.209703159410673  0.3597597701968404  1.0000
  H   H45       1.0  0.0963862230003674  0.06838230691150642  0.8694708953307493  1.0000
  H   H46       1.0  0.90361377718453  0.5683823069658398  0.6305291049322153  1.0000
  H   H47       1.0  0.9036137765603884  0.9316176931971603  0.1305291045173148  1.0000
  H   H48       1.0  0.09638622321267103  0.43161769314282694  0.36947089516187215  1.0000
  H   H49       1.0  0.775812574630343  0.9101944184543502  0.8661563895764306  1.0000
  H   H50       1.0  0.2241874255545543  0.4101944184000169  0.6338436106865338  1.0000
  H   H51       1.0  0.22418742493041277  0.08980558165431649  0.13384361027163355  1.0000
  H   H52       1.0  0.7758125748406924  0.5898055817086498  0.36615639013379575  1.0000
  H   H53       1.0  0.7062977521123875  0.13910158268259276  0.8533633636445591  1.0000
  H   H54       1.0  0.29370224807250994  0.6391015827369261  0.6466366366184054  1.0000
  H   H55       1.0  0.29370224744836837  0.8608984174260739  0.14663663620350503  1.0000
  H   H56       1.0  0.706297752324691  0.3608984173717406  0.3533633634756819  1.0000
  C   C1        1.0  0.4446200350013669  0.2998833434480024  0.4750015268426855  1.0000
  C   C2        1.0  0.5553799647697382  0.7998833435023357  0.024998473562743834  1.0000
  C   C3        1.0  0.555379964559389  0.7001166566606644  0.5249984730053786  1.0000
  C   C4        1.0  0.4446200347910176  0.20011665660633096  0.9750015262853202  1.0000
  C   C5        1.0  0.5543996618532816  0.352771038624479  0.6437770717303408  1.0000
  C   C6        1.0  0.44560033749712497  0.8527710386788124  0.856222927560358  1.0000
  C   C7        1.0  0.4456003377074742  0.6472289614841877  0.35622292811772327  1.0000
  C   C8        1.0  0.5543996620636309  0.14722896142985437  0.14377707228770606  1.0000
  C   C9        1.0  0.5474257626230583  0.46745711223184544  0.7940141174882901  1.0000
  C   C10       1.0  0.452574237561839  0.9674571122861789  0.7059858827746743  1.0000
  C   C11       1.0  0.45257423693769755  0.5325428878768214  0.205985882359774  1.0000
  C   C12       1.0  0.5474257628353619  0.03254288782248793  0.29401411731941296  1.0000
  C   C13       1.0  0.6152656551132842  0.5120940973130471  0.8987244534112521  1.0000
  C   C14       1.0  0.38473434423516795  0.012094097258713764  0.6012755466056892  1.0000
  C   C15       1.0  0.38473434444747157  0.48790590279561963  0.10127554643681193  1.0000
  C   C16       1.0  0.615265655325588  0.9879059028499529  0.39872445324237504  1.0000
  C   C17       1.0  0.14729854501731723  0.6826075397904552  0.8961213378034175  1.0000
  C   C18       1.0  0.8527014551675801  0.1826075397361218  0.603878662459547  1.0000
  C   C19       1.0  0.8527014553798837  0.3173924603182116  0.10387866229066976  1.0000
  C   C20       1.0  0.14729854439317572  0.8173924603725449  0.39612133738851724  1.0000
  C   C21       1.0  0.10391740148061684  0.8082991580383672  0.8858013864059436  1.0000
  C   C22       1.0  0.8960825978678354  0.3082991579840339  0.6141986136109976  1.0000
  C   C23       1.0  0.896082598080139  0.19170084207029947  0.11419861344212046  1.0000
  C   C24       1.0  0.10391740169292048  0.6917008421246328  0.3858013862370665  1.0000
  C   C25       1.0  0.9911644384484569  0.831366978299609  0.8775811891075244  1.0000
  C   C26       1.0  0.008835561736440482  0.3313669782452756  0.62241881115544  1.0000
  C   C27       1.0  0.008835561948744118  0.1686330218090578  0.12241881098656288  1.0000
  C   C28       1.0  0.9911644386607605  0.6686330218633911  0.3775811889386472  1.0000
  C   C29       1.0  0.9266487859970719  0.7187597524693079  0.8786737357148918  1.0000
  C   C30       1.0  0.07335121335138016  0.2187597533986115  0.6213262643020493  1.0000
  C   C31       1.0  0.07335121356368379  0.2812402466557219  0.12132626413317214  1.0000
  C   C32       1.0  0.9266487862093757  0.7812402467100553  0.3786737355460148  1.0000
  C   C33       1.0  0.9719582726689993  0.5941226539857487  0.8883707588595481  1.0000
  C   C34       1.0  0.028041727515898188  0.09412265393141533  0.6116292414034165  1.0000
  C   C35       1.0  0.028041727728201824  0.40587734612291804  0.1116292412345392  1.0000
  C   C36       1.0  0.9719582728813028  0.9058773461772514  0.38837075869067095  1.0000
  C   C37       1.0  0.9664764183266826  0.20127814000033867  0.8597043380324755  1.0000
  C   C38       1.0  0.033523581021769534  0.701278140054672  0.640295661984466  1.0000
  C   C39       1.0  0.03352358123407317  0.798721860108328  0.1402956618155887  1.0000
  C   C40       1.0  0.9664764185389864  0.2987218600539947  0.35970433786359823  1.0000
  C   C41       1.0  0.00955591650601175  0.07579156283579573  0.866454080806727  1.0000
  C   C42       1.0  0.9904440836788856  0.575791562890129  0.6335459194562375  1.0000
  C   C43       1.0  0.9904440830547441  0.9242084372728709  0.13354591904133709  1.0000
  C   C44       1.0  0.009555916718315386  0.4242084372185377  0.3664540806378498  1.0000
  C   C45       1.0  0.9443691061242836  0.9645842354086166  0.8691298112330756  1.0000
  C   C46       1.0  0.05563089406061371  0.46458423535428334  0.6308701890298888  1.0000
  C   C47       1.0  0.055630893436472185  0.03541576470005003  0.13087018861498842  1.0000
  C   C48       1.0  0.9443691063365873  0.5354157647543833  0.36912981106419857  1.0000
  C   C49       1.0  0.833243361158333  0.9894009719510223  0.8648391109025314  1.0000
  C   C50       1.0  0.16675663902656435  0.4894009718966889  0.635160889360433  1.0000
  C   C51       1.0  0.16675663923886797  0.010599028157644508  0.1351608891915559  1.0000
  C   C52       1.0  0.8332433613706366  0.5105990282119779  0.36483911073365427  1.0000
  C   C53       1.0  0.7918773224726547  0.11604922814465338  0.8578235049772356  1.0000
  C   C54       1.0  0.2081226768757974  0.6160492281989868  0.6421764950397056  1.0000
  C   C55       1.0  0.20812267708810103  0.8839507719640134  0.14217649487082853  1.0000
  C   C56       1.0  0.7918773226849585  0.38395077190968  0.35782350480835845  1.0000
  N   N1        1.0  0.305460283422668  0.11875140368738075  0.3527945058183044  1.0000
  N   N2        1.0  0.6945397171868367  0.6187514037417142  0.14720549410690573  1.0000
  N   N3        1.0  0.6945397169745329  0.8812485964212861  0.6472054942757829  1.0000
  N   N4        1.0  0.3054602832103644  0.38124859636695263  0.8527945059871815  1.0000
  N   N5        1.0  0.5460233658661207  0.25264143500641123  0.497268712822835  1.0000
  N   N6        1.0  0.4539766339069389  0.7526414350607447  0.002731286856351911  1.0000
  N   N7        1.0  0.4539766345310804  0.7473585651022555  0.5027312872712523  1.0000
  N   N8        1.0  0.5460233656538169  0.24735856504792217  0.9972687129917123  1.0000
  N   N9        1.0  0.6104727007754035  0.28284428600576395  0.5947954885692321  1.0000
  N   N10       1.0  0.38952729941144826  0.7828442860600974  0.9052045109674899  1.0000
  N   N11       1.0  0.3895272996217975  0.7171557141029028  0.40520451152485515  1.0000
  N   N12       1.0  0.6104727001493075  0.2171557140485694  0.09479548888057414  1.0000
  N   N13       1.0  0.6028350416055516  0.3938896488699036  0.74231478505881  1.0000
  N   N14       1.0  0.39716495774290067  0.893889648924237  0.7576852149581312  1.0000
  N   N15       1.0  0.3971649579552043  0.6061103512387631  0.2576852147892541  1.0000
  N   N16       1.0  0.6028350418178552  0.10611035118442975  0.24231478488993288  1.0000
  N   N17       1.0  0.08214841079522996  0.5759904434554646  0.8979363690114116  1.0000
  N   N18       1.0  0.9178515885532222  0.07599044340113126  0.6020636310055297  1.0000
  N   N19       1.0  0.9178515887655259  0.42400955665320206  0.10206363083665256  1.0000
  N   N20       1.0  0.08214841100753359  0.9240095567075355  0.3979363688425344  1.0000
  N   N21       1.0  0.8579784352059934  0.2212610624130607  0.8549071556089205  1.0000
  N   N22       1.0  0.1420215649808583  0.7212610624673941  0.6450928439278015  1.0000
  N   N23       1.0  0.14202156435476238  0.778738937695606  0.14509284423914356  1.0000
  N   N24       1.0  0.8579784354163428  0.27873893764127267  0.3549071561662857  1.0000
  O   O1        1.0  0.2444969016812445  0.3475469606447331  0.3658134278724467  1.0000
  O   O2        1.0  0.7555030980898607  0.8475469606990664  0.13418657253298263  1.0000
  O   O3        1.0  0.7555030978795113  0.6524530394639336  0.6341865719756175  1.0000
  O   O4        1.0  0.24449690147089526  0.15245303940960026  0.8658134273150815  1.0000
  O   O5        1.0  0.38513590898508  0.2964117189077867  0.27658093267459455  1.0000
  O   O6        1.0  0.6148640916224704  0.79641171896212  0.22341906797685798  1.0000
  O   O7        1.0  0.6148640914121211  0.70358828120088  0.7234190674194928  1.0000
  O   O8        1.0  0.38513590877277626  0.20358828114654665  0.7765809328434717  1.0000
  O   O9        1.0  0.4468995806544674  0.4966221111944646  0.7532074370491767  1.0000
  O   O10       1.0  0.5531004186939847  0.996622111248798  0.7467925629677646  1.0000
  O   O11       1.0  0.5531004189062885  0.5033778889142022  0.24679256279888748  1.0000
  O   O12       1.0  0.446899580866771  0.0033778888598688162  0.2532074368802995  1.0000
  O   O13       1.0  0.12393376109227502  0.45685401181734975  0.9091689091475892  1.0000
  O   O14       1.0  0.8760662390926224  0.9568540118716832  0.5908310911153754  1.0000
  O   O15       1.0  0.8760662384684809  0.543145988291317  0.09083109070047495  1.0000
  O   O16       1.0  0.12393376130457866  0.043145988236983644  0.40916890897871205  1.0000
  O   O17       1.0  0.8185920612431886  0.3418491886985949  0.8481846225187554  1.0000
  O   O18       1.0  0.18140793894170876  0.8418491887529282  0.6518153777442092  1.0000
  O   O19       1.0  0.18140793831756719  0.6581508114100719  0.15181537732930883  1.0000
  O   O20       1.0  0.8185920614554922  0.15815081135573847  0.3481846223498781  1.0000
  S   S1        1.0  0.33736521558717986  0.27026947849850336  0.3569268578225423  1.0000
  S   S2        1.0  0.6626347841858796  0.7702694785528367  0.1430731418566447  1.0000
  S   S3        1.0  0.6626347839735761  0.7297305216101634  0.6430731420255219  1.0000
  S   S4        1.0  0.3373652153748761  0.22973052155583  0.8569268579914193  1.0000
  S   S5        1.0  0.4170769252054458  0.3880540939821149  0.5721701745114504  1.0000
  S   S6        1.0  0.5829230749814059  0.8880540940364483  0.9278298250252717  1.0000
  S   S7        1.0  0.5829230751917551  0.6119459051429149  0.4278298255826369  1.0000
  S   S8        1.0  0.4170769245793499  0.11194590607221848  0.07217017482279241  1.0000
