data_image0
_chemical_formula_structural       H36C16N24
_chemical_formula_sum              "H36 C16 N24"
_cell_length_a       8.711042398290234
_cell_length_b       8.821750850187362
_cell_length_c       9.673948796153127
_cell_angle_alpha    67.76946188184439
_cell_angle_beta     86.11536578218536
_cell_angle_gamma    71.45791163829314

_space_group_name_H-M_alt    "P 1"
_space_group_IT_number       1

loop_
  _space_group_symop_operation_xyz
  'x, y, z'

loop_
  _atom_site_type_symbol
  _atom_site_label
  _atom_site_symmetry_multiplicity
  _atom_site_fract_x
  _atom_site_fract_y
  _atom_site_fract_z
  _atom_site_occupancy
  H   H1        1.0  0.8596090844114503  0.7181632627570242  0.8675474150024418  1.0000
  H   H2        1.0  0.14039091537984674  0.28183673789047997  0.13245258540464266  1.0000
  H   H3        1.0  0.03187341435605659  0.766942178675279  0.8861475877965022  1.0000
  H   H4        1.0  0.9681265858158474  0.23305782068236347  0.11385241199777459  1.0000
  H   H5        1.0  0.5899367614248293  0.8574595981255678  0.6760371245121507  1.0000
  H   H6        1.0  0.4100632387467268  0.14254040123095862  0.3239628763162357  1.0000
  H   H7        1.0  0.4337380670259093  0.7897303131876237  0.6304622689854311  1.0000
  H   H8        1.0  0.5662619327653877  0.21026968745988028  0.3695377314216536  1.0000
  H   H9        1.0  0.452974472415463  0.4475974327411859  0.7916278572130846  1.0000
  H   H10       1.0  0.5470255273758342  0.5524025679063181  0.20837214319399988  1.0000
  H   H11       1.0  0.1194850278728587  0.5795806837728534  0.6952296724532967  1.0000
  H   H12       1.0  0.8805149719184384  0.42041931687465056  0.3047703279537879  1.0000
  H   H13       1.0  0.14286198566719455  0.4336639585027425  0.885791308600989  1.0000
  H   H14       1.0  0.8571380145043616  0.5663360408537841  0.11420869222739763  1.0000
  H   H15       1.0  0.9690783619173312  0.31049231321086107  0.8204505255072901  1.0000
  H   H16       1.0  0.030921637874313866  0.6895076874377588  0.17954947386568462  1.0000
  H   H17       1.0  0.976301460206467  0.4282233826992183  0.6261681310646839  1.0000
  H   H18       1.0  0.02369853958517818  0.5717766179494017  0.3738318683082909  1.0000
  H   H19       1.0  0.4728684477905343  0.31647577004459765  0.5787058681478596  1.0000
  H   H20       1.0  0.527131552381022  0.6835242293119288  0.4212941326805268  1.0000
  H   H21       1.0  0.28860869775250775  0.493127627690013  0.519870812541844  1.0000
  H   H22       1.0  0.7113913024193964  0.5068723716676293  0.48012918725243275  1.0000
  H   H23       1.0  0.07902475317861717  0.12243506064305641  0.6958183275406092  1.0000
  H   H24       1.0  0.920975246992939  0.8775649387134701  0.30418167328777723  1.0000
  H   H25       1.0  0.17801168377363796  0.29464037994224335  0.48138574870523027  1.0000
  H   H26       1.0  0.821988316398266  0.7053596194153992  0.5186142510890465  1.0000
  H   H27       1.0  0.34579864035929125  0.11614334979103888  0.5820138196384081  1.0000
  H   H28       1.0  0.6542013598126128  0.8838566495666036  0.41798618015586864  1.0000
  H   H29       1.0  0.33482542253524766  0.9572048235249856  0.8446626174758747  1.0000
  H   H30       1.0  0.6651745776363086  0.04279517583154079  0.15533738335251177  1.0000
  H   H31       1.0  0.1921726988969856  0.0613831629875905  0.9482604389776633  1.0000
  H   H32       1.0  0.8078273008946594  0.9386168376610295  0.051739560395311475  1.0000
  H   H33       1.0  0.3841299190658315  0.18638907682443606  0.9733988180647444  1.0000
  H   H34       1.0  0.6158700811060727  0.8136109225332064  0.02660118172953253  1.0000
  H   H35       1.0  0.5072645517760422  0.12091650911329405  0.8382708874392596  1.0000
  H   H36       1.0  0.49273544801560276  0.8790834915353261  0.1617291119337153  1.0000
  C   C1        1.0  0.8636111555435739  0.951481356708631  0.7188183267478575  1.0000
  C   C2        1.0  0.13638884462833012  0.048518642649011415  0.2811816730464193  1.0000
  C   C3        1.0  0.6000547986147435  0.6106804629486704  0.802371521757822  1.0000
  C   C4        1.0  0.39994520155681235  0.38931953640785616  0.19762847907056444  1.0000
  C   C5        1.0  0.15413573605621106  0.4430474461472126  0.7697170177657815  1.0000
  C   C6        1.0  0.845864263735434  0.5569525545014075  0.23028298160719313  1.0000
  C   C7        1.0  0.04967258693069816  0.35028861052971255  0.7318221247406567  1.0000
  C   C8        1.0  0.9503274132408579  0.649711388826814  0.26817787608772986  1.0000
  C   C9        1.0  0.34358748787689586  0.3598085244160675  0.5985082675103431  1.0000
  C   C10       1.0  0.6564125122950083  0.6401914749415751  0.40149173228393353  1.0000
  C   C11       1.0  0.25920224967470995  0.23699338690972363  0.5823496130388188  1.0000
  C   C12       1.0  0.7407977501165872  0.7630066137377803  0.4176503873682656  1.0000
  C   C13       1.0  0.2688855630006267  0.08193532620537398  0.8524200774019356  1.0000
  C   C14       1.0  0.7311144371712773  0.9180646731522685  0.14757992239234108  1.0000
  C   C15       1.0  0.38266136877990886  0.181601762578061  0.8618448851336891  1.0000
  C   C16       1.0  0.6173386310117362  0.818398238070559  0.13815511423928584  1.0000
  N   N1        1.0  0.9119252478392232  0.812935635796416  0.8502494179028515  1.0000
  N   N2        1.0  0.08807475233233306  0.18706436356011033  0.14975058292553492  1.0000
  N   N3        1.0  0.7262355871383195  0.9946830707407042  0.6361300314731153  1.0000
  N   N4        1.0  0.2737644126533257  0.005316929907915819  0.3638699678998596  1.0000
  N   N5        1.0  0.7213732055179191  0.14451940649316367  0.5207581487239928  1.0000
  N   N6        1.0  0.2786267946536371  0.8554805928633628  0.4792418521043936  1.0000
  N   N7        1.0  0.8473327784749217  0.1901786421891964  0.5325224730124931  1.0000
  N   N8        1.0  0.1526672213167234  0.8098213584594236  0.46747752636048184  1.0000
  N   N9        1.0  0.940265979654478  0.07061839685649725  0.6566269699544048  1.0000
  N   N10       1.0  0.05973402013716723  0.9293816037921228  0.34337302941856984  1.0000
  N   N11       1.0  0.6569908250656403  0.33364759790416526  0.9419975596461545  1.0000
  N   N12       1.0  0.3430091751062639  0.6663524014534772  0.058002440148122426  1.0000
  N   N13       1.0  0.524841322093722  0.7705977581205947  0.7048684452436177  1.0000
  N   N14       1.0  0.4751586776979232  0.2294022425280252  0.29513155412935715  1.0000
  N   N15       1.0  0.7643189030785915  0.3907234043723908  0.9738764866418733  1.0000
  N   N16       1.0  0.2356810970933125  0.6092765949852517  0.026123513152403542  1.0000
  N   N17       1.0  0.7353513451107389  0.5615432904908478  0.890002468449352  1.0000
  N   N18       1.0  0.2646486546805582  0.43845671015665616  0.10999753195773254  1.0000
  N   N19       1.0  0.5521693442630856  0.46962523296452546  0.8340466813861458  1.0000
  N   N20       1.0  0.4478306559088185  0.5303747663931171  0.16595331840813096  1.0000
  N   N21       1.0  0.3268298188126839  0.3613735909719551  0.7510671970989882  1.0000
  N   N22       1.0  0.6731701813592201  0.6386264083856874  0.24893280269528859  1.0000
  N   N23       1.0  0.1597200715746683  0.19062016460861914  0.714360086908306  1.0000
  N   N24       1.0  0.840279928216977  0.8093798360400009  0.28563991246466885  1.0000
