data_image0
_chemical_formula_structural       H68C48N12O24
_chemical_formula_sum              "H68 C48 N12 O24"
_cell_length_a       9.077953043188476
_cell_length_b       11.184920632705186
_cell_length_c       13.437222848429842
_cell_angle_alpha    90.0
_cell_angle_beta     97.04022082742367
_cell_angle_gamma    90.0

_space_group_name_H-M_alt    "P 1"
_space_group_IT_number       1

loop_
  _space_group_symop_operation_xyz
  'x, y, z'

loop_
  _atom_site_type_symbol
  _atom_site_label
  _atom_site_symmetry_multiplicity
  _atom_site_fract_x
  _atom_site_fract_y
  _atom_site_fract_z
  _atom_site_occupancy
  H   H1        1.0  0.1254654100168247  0.47218340866515884  0.15095966510187875  1.0000
  H   H2        1.0  0.8745345895392364  0.9721834080971984  0.34904033466006673  1.0000
  H   H3        1.0  0.874534589501653  0.5278165919870419  0.8490403350301369  1.0000
  H   H4        1.0  0.1254654099867941  0.027816591660941536  0.6509596647283901  1.0000
  H   H5        1.0  0.06739494362833373  0.321774479961557  0.1417057963685887  1.0000
  H   H6        1.0  0.9326050559277274  0.8217744802876574  0.35829420339335677  1.0000
  H   H7        1.0  0.9326050558976967  0.678225519796583  0.858294203019868  1.0000
  H   H8        1.0  0.06739494359075038  0.17822551947048254  0.6417057967386588  1.0000
  H   H9        1.0  0.5952681727816862  0.43626394770579835  0.32144353734277803  1.0000
  H   H10       1.0  0.40473182677437486  0.9362639480318988  0.17855646241916748  1.0000
  H   H11       1.0  0.40473182674434427  0.5637360520523416  0.6785564620456788  1.0000
  H   H12       1.0  0.5952681727441028  0.06373605262030207  0.8214435377128481  1.0000
  H   H13       1.0  0.5224527039922057  0.2902074191307815  0.3088413256112798  1.0000
  H   H14       1.0  0.4775472955638554  0.7902074194568819  0.19115867415066565  1.0000
  H   H15       1.0  0.4775472966437376  0.7097925806273584  0.6911586738741456  1.0000
  H   H16       1.0  0.5224527039546223  0.20979258119531885  0.8088413259813498  1.0000
  H   H17       1.0  0.5886491003281776  0.28372813131285163  0.13009289480013492  1.0000
  H   H18       1.0  0.4113509003302434  0.783728131638952  0.369907105802338  1.0000
  H   H19       1.0  0.41135090030021276  0.7162718684452882  0.8699071054288492  1.0000
  H   H20       1.0  0.5886491002981471  0.21627186811918794  0.6300928944266462  1.0000
  H   H21       1.0  0.7459671687445245  0.29991945049579327  0.22093331549897174  1.0000
  H   H22       1.0  0.25403283081153655  0.7999194499278328  0.2790666842629737  1.0000
  H   H23       1.0  0.25403283078150596  0.7000805501564075  0.7790666838894851  1.0000
  H   H24       1.0  0.7459671687069411  0.2000805498303071  0.7209333158690419  1.0000
  H   H25       1.0  0.6773376060594973  0.4257215876951953  0.15080481394750786  1.0000
  H   H26       1.0  0.32266239349656367  0.9257215880212957  0.34919518581443765  1.0000
  H   H27       1.0  0.32266239345898035  0.5742784120629446  0.8491951861845077  1.0000
  H   H28       1.0  0.6773376060219141  0.07427841173684423  0.650804814317578  1.0000
  H   H29       1.0  0.2826632604605187  0.5811981518216416  0.23112876636792626  1.0000
  H   H30       1.0  0.7173367390955423  0.08119815149554119  0.26887123339401925  1.0000
  H   H31       1.0  0.717336739057959  0.41880184793649833  0.7688712337640893  1.0000
  H   H32       1.0  0.2826632604304881  0.9188018482625988  0.7311287659944377  1.0000
  H   H33       1.0  0.4771545780033939  0.5906571979315121  0.25348358575922564  1.0000
  H   H34       1.0  0.5228454215451144  0.09065719760541166  0.24651641474627864  1.0000
  H   H35       1.0  0.5228454215150837  0.4093428027206888  0.7465164143727898  1.0000
  H   H36       1.0  0.47715457797336336  0.9093428021527282  0.753483585385737  1.0000
  H   H37       1.0  0.3079138037731861  0.5304466732335715  0.045960215126270576  1.0000
  H   H38       1.0  0.6920861957828749  0.030446673801532025  0.45403978463567496  1.0000
  H   H39       1.0  0.6920861957452915  0.4695533265245684  0.954039785005745  1.0000
  H   H40       1.0  0.3079138048455155  0.9695533268506689  0.5459602155933093  1.0000
  H   H41       1.0  0.5013466958786922  0.5588159876364093  0.07402875684809862  1.0000
  H   H42       1.0  0.49865330367736893  0.05881598820436975  0.42597124291384686  1.0000
  H   H43       1.0  0.4986533036473383  0.44118401212173064  0.9259712425403582  1.0000
  H   H44       1.0  0.5013466958411089  0.9411840115537702  0.5740287572181687  1.0000
  H   H45       1.0  0.3697424171213066  0.6752179588934115  0.08289297005390327  1.0000
  H   H46       1.0  0.6302575824347545  0.17521795946137195  0.41710702970804225  1.0000
  H   H47       1.0  0.6302575824047238  0.32478204086472845  0.9171070293345536  1.0000
  H   H48       1.0  0.36974241708372324  0.8247820402967679  0.5828929704239734  1.0000
  H   H49       1.0  0.21854686785574015  0.16722197067102776  0.19162971025860803  1.0000
  H   H50       1.0  0.7814531316927682  0.6672219701030673  0.3083702902468962  1.0000
  H   H51       1.0  0.7814531316627376  0.832778029981173  0.8083702898734076  1.0000
  H   H52       1.0  0.21854686782570953  0.33277802965507264  0.6916297098851193  1.0000
  H   H53       1.0  0.7882173726574871  0.16472466908818728  0.058544762055433144  1.0000
  H   H54       1.0  0.2117826280009339  0.6647246685202268  0.44145523854703983  1.0000
  H   H55       1.0  0.21178262797090328  0.8352753315640136  0.9414552381735511  1.0000
  H   H56       1.0  0.7882173726274565  0.33527533123791314  0.5585447616819444  1.0000
  H   H57       1.0  0.5566818731935596  0.9079554619551924  0.9861371719296491  1.0000
  H   H58       1.0  0.4433181274048003  0.40795546252315296  0.5138628279258465  1.0000
  H   H59       1.0  0.4433181274423837  0.09204453780294751  0.013862827555776383  1.0000
  H   H60       1.0  0.5566818732235902  0.5920445381290479  0.48613717230313785  1.0000
  H   H61       1.0  0.6604073411324773  0.7048394207597769  0.020508798240963837  1.0000
  H   H62       1.0  0.33959265953349654  0.20483942043367645  0.47949120161795034  1.0000
  H   H63       1.0  0.3395926594959131  0.29516057989242395  0.9794912019880204  1.0000
  H   H64       1.0  0.660407341094894  0.7951605793244634  0.5205087986110339  1.0000
  H   H65       1.0  0.0743251019347697  0.8584422603701349  0.15310215462280735  1.0000
  H   H66       1.0  0.9256748976212914  0.35844226004403457  0.3468978451391381  1.0000
  H   H67       1.0  0.9256748975837079  0.14155773938800495  0.8468978455092082  1.0000
  H   H68       1.0  0.07432510190473908  0.6415577397141053  0.6531021542493186  1.0000
  C   C1        1.0  0.28463632377409237  0.344435406965265  0.1989321723880336  1.0000
  C   C2        1.0  0.715363675774416  0.8444354072913653  0.3010678281174706  1.0000
  C   C3        1.0  0.7153636768542981  0.6555645927928749  0.8010678278409508  1.0000
  C   C4        1.0  0.2846363237440618  0.1555645924667745  0.6989321720145448  1.0000
  C   C5        1.0  0.5432119642769275  0.3710399122426556  0.2671450710090406  1.0000
  C   C6        1.0  0.45678803527913353  0.8710399116746951  0.23285492875290484  1.0000
  C   C7        1.0  0.4567880352415502  0.6289600884095452  0.732854929122975  1.0000
  C   C8        1.0  0.5432119642468969  0.1289600880834448  0.767145070635552  1.0000
  C   C9        1.0  0.6439792900084167  0.34414891141422554  0.18729842453959267  1.0000
  C   C10       1.0  0.3560207106575572  0.844148911740326  0.3127015753193215  1.0000
  C   C11       1.0  0.3560207106199738  0.6558510883439145  0.8127015756893916  1.0000
  C   C12       1.0  0.6439792899783862  0.1558510889118749  0.687298424166104  1.0000
  C   C13       1.0  0.38549883721383593  0.5480509608692163  0.2056812329790937  1.0000
  C   C14       1.0  0.6145011634521379  0.04805096054311592  0.29431876687982045  1.0000
  C   C15       1.0  0.6145011634145545  0.4519490397829845  0.7943187672498906  1.0000
  C   C16       1.0  0.38549883718380534  0.951949039215024  0.7056812326056051  1.0000
  C   C17       1.0  0.3916195673681747  0.5796455391058015  0.09572293904370732  1.0000
  C   C18       1.0  0.6083804321878864  0.07964553877970111  0.40427706071823816  1.0000
  C   C19       1.0  0.6083804321578558  0.4203544606523384  0.9042770603447494  1.0000
  C   C20       1.0  0.39161956733059133  0.9203544609784388  0.5957229394137774  1.0000
  C   C21       1.0  0.9049065054382147  0.9839461245545059  0.098874288176914  1.0000
  C   C22       1.0  0.09509349522775924  0.48394612422840555  0.4011257116820002  1.0000
  C   C23       1.0  0.09509349519772864  0.01605387520363399  0.9011257113085115  1.0000
  C   C24       1.0  0.904906505400631  0.5160538755297344  0.5988742885469841  1.0000
  C   C25       1.0  0.7577921481511035  0.9983989575524727  0.049898118146578865  1.0000
  C   C26       1.0  0.2422078514049576  0.4983989581204331  0.4501018816153666  1.0000
  C   C27       1.0  0.24220785136737424  0.0016010422056672998  0.9501018819854368  1.0000
  C   C28       1.0  0.7577921481210729  0.5016010416377068  0.5498981177730903  1.0000
  C   C29       1.0  0.669764783746433  0.8968943356349712  0.022262488540170076  1.0000
  C   C30       1.0  0.3302352169195408  0.39689433530887086  0.47773751131874403  1.0000
  C   C31       1.0  0.33023521688195745  0.10310566501722955  0.9777375116888142  1.0000
  C   C32       1.0  0.6697647837164025  0.603105664449269  0.5222624881666814  1.0000
  C   C33       1.0  0.7267793205855192  0.7838858162625552  0.04129853826582939  1.0000
  C   C34       1.0  0.2732206789629892  0.2838858159364548  0.45870146223967484  1.0000
  C   C35       1.0  0.27322067893295854  0.21611418349558473  0.9587014618661862  1.0000
  C   C36       1.0  0.7267793205554886  0.7161141838216851  0.5412985378923407  1.0000
  C   C37       1.0  0.8730829661093382  0.7704568269176687  0.08777992307966787  1.0000
  C   C38       1.0  0.1269170334467228  0.2704568274856291  0.41222007668227756  1.0000
  C   C39       1.0  0.12691703340913946  0.2295431728404713  0.9122200770523478  1.0000
  C   C40       1.0  0.873082966071755  0.7295431722725109  0.587779923449738  1.0000
  C   C41       1.0  0.9613449068084461  0.8693967144984667  0.11681990262004158  1.0000
  C   C42       1.0  0.0386550927476149  0.3693967141723663  0.3831800971419039  1.0000
  C   C43       1.0  0.03865509271003154  0.1306032852596732  0.8831800975119739  1.0000
  C   C44       1.0  0.9613449078883284  0.6306032855857736  0.6168199023435216  1.0000
  C   C45       1.0  0.997652392443643  0.09079714495518748  0.1289694535336415  1.0000
  C   C46       1.0  0.0023476082223308505  0.5907971443872271  0.37103054632527266  1.0000
  C   C47       1.0  0.002347608184747492  0.9092028556970132  0.8710305466953427  1.0000
  C   C48       1.0  0.9976523924060597  0.40920285537091294  0.6289694539037115  1.0000
  N   N1        1.0  0.3981615229838953  0.4195533373995011  0.2259629845204238  1.0000
  N   N2        1.0  0.601838476564613  0.9195533377256014  0.27403701598508046  1.0000
  N   N3        1.0  0.6018384765345823  0.5804466623586388  0.7740370156115919  1.0000
  N   N4        1.0  0.39816152295386464  0.08044666203253843  0.725962984146935  1.0000
  N   N5        1.0  0.15100219171840767  0.3833958738572509  0.15941651471271231  1.0000
  N   N6        1.0  0.8489978078376533  0.8833958741833513  0.34058348504923314  1.0000
  N   N7        1.0  0.8489978078076228  0.616604125900889  0.8405834846757444  1.0000
  N   N8        1.0  0.15100219168082432  0.11660412557478865  0.6594165150827824  1.0000
  N   N9        1.0  0.9334730724489217  0.652252916186812  0.10434515744164201  1.0000
  N   N10       1.0  0.06652692710713923  0.1522529158607116  0.3956548423203035  1.0000
  N   N11       1.0  0.06652692706955587  0.34774708446538877  0.8956548426903737  1.0000
  N   N12       1.0  0.9334730724113384  0.8477470838974284  0.604345157811712  1.0000
  O   O1        1.0  0.31076760849919144  0.23061781166847098  0.21305403686974703  1.0000
  O   O2        1.0  0.6892323910568696  0.7306178119945713  0.2869459628921984  1.0000
  O   O3        1.0  0.6892323910192862  0.769382188089669  0.7869459632622685  1.0000
  O   O4        1.0  0.3107676084616081  0.2693821886576294  0.7130540372398172  1.0000
  O   O5        1.0  0.12911722748205592  0.07325686671429035  0.17138328720071394  1.0000
  O   O6        1.0  0.870882772074005  0.5732568670403907  0.32861671256123154  1.0000
  O   O7        1.0  0.8708827720439745  0.9267431330438496  0.8286167121877428  1.0000
  O   O8        1.0  0.12911722744447257  0.42674313271774916  0.671383287570784  1.0000
  O   O9        1.0  0.9400095497487188  0.19430795008460966  0.10992879805932529  1.0000
  O   O10       1.0  0.059990449807342416  0.6943079495166492  0.3900712017026202  1.0000
  O   O11       1.0  0.05999044976975906  0.8056920505675912  0.8900712020726903  1.0000
  O   O12       1.0  0.940009549711135  0.30569205024149076  0.6099287984293953  1.0000
  O   O13       1.0  0.7023806611245671  0.10757071502875754  0.029815546561150194  1.0000
  O   O14       1.0  0.29761933954140674  0.607570715354858  0.470184453297764  1.0000
  O   O15       1.0  0.2976193395038234  0.8924292847293824  0.9701844536678341  1.0000
  O   O16       1.0  0.7023806610869837  0.392429284403282  0.5298155469312202  1.0000
  O   O17       1.0  0.8527665016659898  0.5639704319005395  0.08194633744772106  1.0000
  O   O18       1.0  0.147233498999984  0.06397043246850005  0.4180536624111931  1.0000
  O   O19       1.0  0.1472334989699534  0.43602956785760033  0.9180536620377044  1.0000
  O   O20       1.0  0.8527665016284064  0.9360295681837009  0.5819463378177911  1.0000
  O   O21       1.0  0.06723373915888387  0.642530605803846  0.1404043244921564  1.0000
  O   O22       1.0  0.932766260397177  0.14253060547774565  0.3595956752697891  1.0000
  O   O23       1.0  0.9327662603595938  0.3574693939542939  0.8595956756398592  1.0000
  O   O24       1.0  0.06723373912885329  0.8574693942803944  0.6404043241186677  1.0000
