data_image0
_chemical_formula_structural       H24C52N4O4Cl4
_chemical_formula_sum              "H24 C52 N4 O4 Cl4"
_cell_length_a       6.874740395290081
_cell_length_b       11.351215249776354
_cell_length_c       12.614956250178416
_cell_angle_alpha    96.73198350513006
_cell_angle_beta     93.82851795127539
_cell_angle_gamma    106.05458901711701

_space_group_name_H-M_alt    "P 1"
_space_group_IT_number       1

loop_
  _space_group_symop_operation_xyz
  'x, y, z'

loop_
  _atom_site_type_symbol
  _atom_site_label
  _atom_site_symmetry_multiplicity
  _atom_site_fract_x
  _atom_site_fract_y
  _atom_site_fract_z
  _atom_site_occupancy
  H   H1        1.0  0.6069958710724764  0.484336030309539  0.0688366686020668  1.0000
  H   H2        1.0  0.3930041299590451  0.5156639702066128  0.9311633320210386  1.0000
  H   H3        1.0  0.5287887554631145  0.271148941601905  0.11122933048127781  1.0000
  H   H4        1.0  0.4712112435368661  0.728851057865492  0.8887706693401717  1.0000
  H   H5        1.0  0.6197070606471674  0.230158728024541  0.29400862187943466  1.0000
  H   H6        1.0  0.38029293980723244  0.7698412714422705  0.7059913779427267  1.0000
  H   H7        1.0  0.7913371381707668  0.4057657540754999  0.4360340036731003  1.0000
  H   H8        1.0  0.2086628624413576  0.5942342455242013  0.5639659969516186  1.0000
  H   H9        1.0  0.951633784275222  0.627914504452476  0.491869943871485  1.0000
  H   H10       1.0  0.04836621659857509  0.37208549593078616  0.5081300559490629  1.0000
  H   H11       1.0  0.05358542330209208  0.8395566129346965  0.4535968590071915  1.0000
  H   H12       1.0  0.9464145773100324  0.16044338666500485  0.5464031416175275  1.0000
  H   H13       1.0  0.650092458771296  0.6552724865930131  0.04391908831156003  1.0000
  H   H14       1.0  0.3499075406480819  0.34472751379083444  0.956080911508276  1.0000
  H   H15       1.0  0.7268349797525435  0.8707136579552516  0.01004755857777824  1.0000
  H   H16       1.0  0.27316501940516164  0.12928634164503508  0.9899524420462288  1.0000
  H   H17       1.0  0.1534289208714573  0.006776502717915303  0.4173590560036999  1.0000
  H   H18       1.0  0.8465710795829428  0.9932234967488963  0.5826409438184613  1.0000
  H   H19       1.0  0.23491136443016894  0.21738228600198453  0.37586852201607407  1.0000
  H   H20       1.0  0.7650886345698118  0.7826177134654125  0.6241314778053754  1.0000
  H   H21       1.0  0.09639977606204397  0.2639521697425958  0.20183423723004695  1.0000
  H   H22       1.0  0.9036002243923561  0.7360478297242158  0.7981657625921144  1.0000
  H   H23       1.0  0.8827940068497773  0.09150970288568992  0.06669767047272451  1.0000
  H   H24       1.0  0.1172059940240199  0.9084902974975724  0.9333023293478233  1.0000
  C   C1        1.0  0.2508599144975035  0.6138230948900868  0.19004126284375486  1.0000
  C   C2        1.0  0.7491400865340182  0.386176905626065  0.8099587377793507  1.0000
  C   C3        1.0  0.3251384821620046  0.6192247540257162  0.29431254173254046  1.0000
  C   C4        1.0  0.6748615187117925  0.380775246357546  0.7056874580880074  1.0000
  C   C5        1.0  0.4455873759386092  0.7370674363245439  0.36029513130063445  1.0000
  C   C6        1.0  0.5544126234807686  0.2629325640593037  0.6397048685192016  1.0000
  C   C7        1.0  0.4734951128358706  0.8502113534900723  0.3082204343063171  1.0000
  C   C8        1.0  0.5265048865835072  0.14978864689377525  0.6917795655135189  1.0000
  C   C9        1.0  0.3922984872442087  0.8454416334240467  0.20448003663686024  1.0000
  C   C10       1.0  0.6077015132101913  0.1545583660427649  0.795519963185301  1.0000
  C   C11       1.0  0.2727589002854979  0.7271094652260186  0.13892112932751752  1.0000
  C   C12       1.0  0.72724109913388  0.2728905351578289  0.8610788704923186  1.0000
  C   C13       1.0  0.41326387226300415  0.9543036376316922  0.1564731052344288  1.0000
  C   C14       1.0  0.5867361283491203  0.04569636196800909  0.8435268953902901  1.0000
  C   C15       1.0  0.5838491865664358  0.9644642424821771  0.36976690542875057  1.0000
  C   C16       1.0  0.41615081285294203  0.035535757901670365  0.6302330943910855  1.0000
  C   C17       1.0  0.6466056344832862  0.4691090761771135  0.1500231313819627  1.0000
  C   C18       1.0  0.3533943661288381  0.5308909234225878  0.8499768692427563  1.0000
  C   C19       1.0  0.6028517528319107  0.3488504157817426  0.1731302178738976  1.0000
  C   C20       1.0  0.3971482480418864  0.6511495846015196  0.8268697819466503  1.0000
  C   C21       1.0  0.6558608240204087  0.32499123544316966  0.276465582427585  1.0000
  C   C22       1.0  0.3441391753989689  0.6750087649406779  0.723534417392251  1.0000
  C   C23       1.0  0.7540872570291054  0.42264761487126035  0.3550148014976297  1.0000
  C   C24       1.0  0.24591274342529454  0.5773523845955513  0.6449851983245316  1.0000
  C   C25       1.0  0.8039032759536234  0.546181823863183  0.3326940758785722  1.0000
  C   C26       1.0  0.19609672492017372  0.4538181765200791  0.6673059239419757  1.0000
  C   C27       1.0  0.7479071330748506  0.5709374466926654  0.22832485949108816  1.0000
  C   C28       1.0  0.2520928663445272  0.429062553691182  0.7716751403287478  1.0000
  C   C29       1.0  0.9114093944970966  0.6470760148711873  0.4119427810841337  1.0000
  C   C30       1.0  0.0885906049222812  0.35292398551266024  0.5880572187357023  1.0000
  C   C31       1.0  0.9680597568166431  0.7668764805068288  0.390144300616962  1.0000
  C   C32       1.0  0.031940242602734675  0.23312351987701874  0.6098556992028741  1.0000
  C   C33       1.0  0.9138128615893681  0.7959053178553344  0.28789152223631415  1.0000
  C   C34       1.0  0.0861871374106125  0.20409468161206268  0.7121084775851353  1.0000
  C   C35       1.0  0.7992831976838985  0.6982002092266699  0.20684446553830055  1.0000
  C   C36       1.0  0.2007168017354792  0.30179979115717764  0.7931555342815355  1.0000
  C   C37       1.0  0.7362374995840429  0.7285374794967665  0.10683944322641722  1.0000
  C   C38       1.0  0.26376250087035696  0.27146251997004506  0.8931605565957441  1.0000
  C   C39       1.0  0.7807819756021864  0.8494137620779113  0.08679423074904297  1.0000
  C   C40       1.0  0.21921802485221348  0.15058623738890028  0.9132057690731183  1.0000
  C   C41       1.0  0.8984566141842198  0.9490130130640237  0.1644584997815154  1.0000
  C   C42       1.0  0.10154338627018007  0.05098698640278786  0.835541500040646  1.0000
  C   C43       1.0  0.970774463616675  0.9228302109566463  0.26542964831076526  1.0000
  C   C44       1.0  0.029225536837725028  0.07716978851016543  0.734570351511396  1.0000
  C   C45       1.0  0.09240543898214654  0.022654356002036503  0.3401672599385339  1.0000
  C   C46       1.0  0.9075945618916506  0.9773456443812257  0.659832739882014  1.0000
  C   C47       1.0  0.1378540031266693  0.14304717946151255  0.3166925807802089  1.0000
  C   C48       1.0  0.8621459962927086  0.856952820922335  0.6833074190396273  1.0000
  C   C49       1.0  0.06166286131232761  0.16877856933312502  0.21838942570772704  1.0000
  C   C50       1.0  0.9383371395614695  0.8312214310501371  0.781610574112821  1.0000
  C   C51       1.0  0.9433073957627038  0.07295945251933005  0.14312438700375543  1.0000
  C   C52       1.0  0.056692604691696  0.9270405469474815  0.856875612818406  1.0000
  N   N1        1.0  0.431848256211984  0.04468125517543055  0.11767352620478252  1.0000
  N   N2        1.0  0.5681517446618131  0.9553187452078317  0.8823264736157653  1.0000
  N   N3        1.0  0.6753019365164533  0.059587569379567  0.41908687093655367  1.0000
  N   N4        1.0  0.3246980643573439  0.940412431003695  0.5809131288839942  1.0000
  O   O1        1.0  0.1945008997393954  0.7253282313647428  0.047520472227161756  1.0000
  O   O2        1.0  0.8054990996799825  0.2746717690191048  0.9524795275926743  1.0000
  O   O3        1.0  0.5212924995123243  0.7411988299026706  0.45266654868833434  1.0000
  O   O4        1.0  0.4787074994876565  0.25880116956472643  0.5473334511331153  1.0000
  Cl  Cl1       1.0  0.1262881291511598  0.47836996128320547  0.11180279726933685  1.0000
  Cl  Cl2       1.0  0.8737118704259426  0.5216300392335317  0.8881972033530567  1.0000
  Cl  Cl3       1.0  0.2925701375960829  0.49057852171062044  0.3550596666223981  1.0000
  Cl  Cl4       1.0  0.7074298614038977  0.5094214777567766  0.6449403331990515  1.0000
