data_image0
_chemical_formula_structural       H88C60N4O2S8Br4
_chemical_formula_sum              "H88 C60 N4 O2 S8 Br4"
_cell_length_a       8.622225232337144
_cell_length_b       8.737163032826569
_cell_length_c       24.557631656805103
_cell_angle_alpha    86.97128921750769
_cell_angle_beta     79.99845759288777
_cell_angle_gamma    64.37891970713126

_space_group_name_H-M_alt    "P 1"
_space_group_IT_number       1

loop_
  _space_group_symop_operation_xyz
  'x, y, z'

loop_
  _atom_site_type_symbol
  _atom_site_label
  _atom_site_symmetry_multiplicity
  _atom_site_fract_x
  _atom_site_fract_y
  _atom_site_fract_z
  _atom_site_occupancy
  H   H1        1.0  0.32788269782945284  0.32714804392411484  0.6352187599211593  1.0000
  H   H2        1.0  0.6721173019758353  0.67285195545889  0.3647812401547058  1.0000
  H   H3        1.0  0.21722523217099304  0.4863836658246403  0.5479058624426092  1.0000
  H   H4        1.0  0.782774767634295  0.5136163335583646  0.45209413763325595  1.0000
  H   H5        1.0  0.399377770444554  0.21969387751423386  0.7444936459480267  1.0000
  H   H6        1.0  0.6006222288326617  0.7803061231378228  0.25550635412911027  1.0000
  H   H7        1.0  0.5097799531115983  0.057204332329162506  0.8299806812913023  1.0000
  H   H8        1.0  0.49022004786748474  0.9427956670224247  0.17001931878336388  1.0000
  H   H9        1.0  0.25057702022940626  0.25385252800814284  0.9996076427269986  1.0000
  H   H10       1.0  0.7494229795758819  0.746147471374862  0.0003923573488664311  1.0000
  H   H11       1.0  0.223634228136444  0.30712526615715957  0.9368631727866114  1.0000
  H   H12       1.0  0.7763657713542966  0.6928747344670546  0.06313682687691022  1.0000
  H   H13       1.0  0.3114295294683234  0.009886021367979773  0.48176550829608417  1.0000
  H   H14       1.0  0.6885704700224172  0.9901139792562345  0.5182344913674374  1.0000
  H   H15       1.0  0.2188507933801495  0.19926950527622755  0.5226742382221217  1.0000
  H   H16       1.0  0.7811492064251385  0.8007304941067773  0.4773257618537434  1.0000
  H   H17       1.0  0.08923907474118113  0.09370483927869488  0.5137916002138684  1.0000
  H   H18       1.0  0.9107609245360346  0.9062951613733617  0.4862083998632686  1.0000
  H   H19       1.0  0.40377559779032585  0.9504291060443161  0.5756677873958808  1.0000
  H   H20       1.0  0.5962244031887572  0.04957089330727114  0.4243322126787854  1.0000
  H   H21       1.0  0.2760578495057832  0.8446990812553098  0.5666703428516912  1.0000
  H   H22       1.0  0.7239421509452272  0.15530091936532914  0.433329657224247  1.0000
  H   H23       1.0  0.014052682755193727  0.06898193992858805  0.6212668816932021  1.0000
  H   H24       1.0  0.9859473176958171  0.9310180606920508  0.3787331183827359  1.0000
  H   H25       1.0  0.1300482234640813  0.18941889360438977  0.6270952673667362  1.0000
  H   H26       1.0  0.8699517758131342  0.8105811070476668  0.3729047327104009  1.0000
  H   H27       1.0  0.33535545401831135  0.9490256093550259  0.678360538014219  1.0000
  H   H28       1.0  0.664644546000502  0.050974390000136434  0.3216394616480305  1.0000
  H   H29       1.0  0.21205080255503483  0.835134154240172  0.6740844848169921  1.0000
  H   H30       1.0  0.7879491972502533  0.16486584514283298  0.3259155152588729  1.0000
  H   H31       1.0  0.0741250433520389  0.18156734310327288  0.7331250111743733  1.0000
  H   H32       1.0  0.9258749576270443  0.8184326562483144  0.26687498890029293  1.0000
  H   H33       1.0  0.9472387948673673  0.07145808958596014  0.7272027485822817  1.0000
  H   H34       1.0  0.05276120462337375  0.928541911038254  0.2727972510812397  1.0000
  H   H35       1.0  0.2697414010039032  0.9425477886528489  0.7841581072966806  1.0000
  H   H36       1.0  0.7302585982733124  0.05745221199920764  0.2158418927804564  1.0000
  H   H37       1.0  0.15048743502791104  0.8246774199791616  0.7768292416650981  1.0000
  H   H38       1.0  0.849512565951172  0.1753225793724258  0.22317075840956807  1.0000
  H   H39       1.0  0.9986276494547369  0.17163965705364678  0.8367042156130515  1.0000
  H   H40       1.0  0.0013723498224786504  0.8283603435984098  0.16329578446408552  1.0000
  H   H41       1.0  0.8848829414441226  0.04274257900510039  0.8330901108636609  1.0000
  H   H42       1.0  0.11511705953496071  0.9572574203464869  0.16690988921100527  1.0000
  H   H43       1.0  0.1612742290794947  0.13322148970518816  0.8981582109245938  1.0000
  H   H44       1.0  0.8387257709393184  0.8667785096499743  0.10184178873765588  1.0000
  H   H45       1.0  0.27740104868020904  0.9893112754587237  0.9836067384108264  1.0000
  H   H46       1.0  0.7225989517708016  0.010688725161915406  0.0163932616651118  1.0000
  H   H47       1.0  0.11313383873892122  0.6020937194729525  0.9529901883317369  1.0000
  H   H48       1.0  0.8868661610663671  0.39790627991005234  0.04700981174412815  1.0000
  H   H49       1.0  0.0021827981116955453  0.761585487917975  0.8699967469768819  1.0000
  H   H50       1.0  0.9978172016935926  0.23841451146502984  0.13000325309898322  1.0000
  H   H51       1.0  0.47239975453924576  0.7830345257485668  0.020557534938295242  1.0000
  H   H52       1.0  0.5276002459117651  0.2169654748720722  0.9794424651376429  1.0000
  H   H53       1.0  0.08250855368287235  0.5867975014259031  0.043565094348060225  1.0000
  H   H54       1.0  0.9174914455943434  0.41320249922615343  0.9564349057290766  1.0000
  H   H55       1.0  0.200796251813809  0.4422865583962754  0.127632096006345  1.0000
  H   H56       1.0  0.7992037479914792  0.5577134409867295  0.8723679040695199  1.0000
  H   H57       1.0  0.5753199271237446  0.6307369282387209  0.10654384166113459  1.0000
  H   H58       1.0  0.4246800740688636  0.36926307108502393  0.8934561579999161  1.0000
  H   H59       1.0  0.5935487821343822  0.42881152250615256  0.16444377903125892  1.0000
  H   H60       1.0  0.40645121831662845  0.5711884781144865  0.8355562210446792  1.0000
  H   H61       1.0  0.4575607902405408  0.31917954757472666  0.16775700668967497  1.0000
  H   H62       1.0  0.542439209036675  0.6808204530773301  0.8322429933874619  1.0000
  H   H63       1.0  0.21400324546242788  0.5606477041330962  0.22450404928467727  1.0000
  H   H64       1.0  0.785996755516655  0.4393522952184912  0.7754959507899891  1.0000
  H   H65       1.0  0.3467116593502096  0.6717962396552551  0.21944519876684868  1.0000
  H   H66       1.0  0.6532883404550784  0.32820375972774984  0.7805548013090164  1.0000
  H   H67       1.0  0.4381779734154275  0.32116912508692663  0.27056974899292807  1.0000
  H   H68       1.0  0.5618220260753131  0.6788308755372876  0.7294302506705935  1.0000
  H   H69       1.0  0.5604953271781689  0.4402580247336749  0.26801527808370923  1.0000
  H   H70       1.0  0.4395046726271193  0.55974197464933  0.7319847219921558  1.0000
  H   H71       1.0  0.1833555651168156  0.5598993797613953  0.32909699314379454  1.0000
  H   H72       1.0  0.8166444353341951  0.4401006208592437  0.6709030069321436  1.0000
  H   H73       1.0  0.3183798178829509  0.66400460005103  0.3293586080193225  1.0000
  H   H74       1.0  0.6816201813942648  0.33599540060102673  0.6706413920578146  1.0000
  H   H75       1.0  0.39174680304847237  0.3064487193714364  0.3717351587857256  1.0000
  H   H76       1.0  0.6082531979306105  0.693551279980151  0.6282648412889406  1.0000
  H   H77       1.0  0.5340545609369032  0.40267252845122037  0.3709853158666255  1.0000
  H   H78       1.0  0.4659454397276324  0.5973274721415762  0.6290146837956972  1.0000
  H   H79       1.0  0.16320098107918465  0.5322005474714971  0.4374597969717358  1.0000
  H   H80       1.0  0.8367990187261035  0.4677994519115076  0.5625402031041292  1.0000
  H   H81       1.0  0.35840456736716086  0.41268337146843725  0.46349088240134556  1.0000
  H   H82       1.0  0.6415954319100549  0.5873166291836193  0.5365091176757915  1.0000
  H   H83       1.0  0.25424091595553217  0.7727751420883437  0.4169806238988572  1.0000
  H   H84       1.0  0.745759083849756  0.22722485729466116  0.5830193761770079  1.0000
  H   H85       1.0  0.4517837365117125  0.6487568621865587  0.4417814956305932  1.0000
  H   H86       1.0  0.5482162632935754  0.35124313719644623  0.558218504445272  1.0000
  H   H87       1.0  0.2500401636193674  0.720597344460001  0.48762503624733305  1.0000
  H   H88       1.0  0.7499598358713733  0.2794026561642131  0.5123749634161885  1.0000
  C   C1        1.0  0.21378963864879097  0.4480072297204453  0.635701117297918  1.0000
  C   C2        1.0  0.7862103623302921  0.5519927696311419  0.36429888277674827  1.0000
  C   C3        1.0  0.15650125813065957  0.5308348646456109  0.5902890745648579  1.0000
  C   C4        1.0  0.8434987413600811  0.4691651359786033  0.40971092509866347  1.0000
  C   C5        1.0  0.9398466530136906  0.7170600767901936  0.6728667768059344  1.0000
  C   C6        1.0  0.06015334679159735  0.28293992259281137  0.3271332232699307  1.0000
  C   C7        1.0  0.8024443598066723  0.8390205948303581  0.7055476235245752  1.0000
  C   C8        1.0  0.19755564064433853  0.1609794057902809  0.2944523765513628  1.0000
  C   C9        1.0  0.5181782476577339  0.10169742330889403  0.7423651550457874  1.0000
  C   C10       1.0  0.48182175332134924  0.8983025760426933  0.25763484502887884  1.0000
  C   C11       1.0  0.5748754332288352  0.017758469232531167  0.7876106637868587  1.0000
  C   C12       1.0  0.42512456604838067  0.9822415314195254  0.2123893362902783  1.0000
  C   C13       1.0  0.2204400935941223  0.07340488994600111  0.5195554445237708  1.0000
  C   C14       1.0  0.7795599068568884  0.9265951106746378  0.4804445555521674  1.0000
  C   C15       1.0  0.2708591021944045  0.9717382160684847  0.5712704233902288  1.0000
  C   C16       1.0  0.7291408987846785  0.02826178328310267  0.42872957668443745  1.0000
  C   C17       1.0  0.14469702652499725  0.05824444062792698  0.6240340086361277  1.0000
  C   C18       1.0  0.8553029744540858  0.9417555587236603  0.3759659914385386  1.0000
  C   C19       1.0  0.2025637654255121  0.9646244658702934  0.6763107720648039  1.0000
  C   C20       1.0  0.7974362343797761  0.03537553351271165  0.3236892280110612  1.0000
  C   C21       1.0  0.08065229809807056  0.05360647501070202  0.7293484976431633  1.0000
  C   C22       1.0  0.9193477028810126  0.9463935243408852  0.2706515024315029  1.0000
  C   C23       1.0  0.1395351525309134  0.954128702338315  0.780685061498606  1.0000
  C   C24       1.0  0.8604648472743748  0.045871297044689806  0.21931493857725912  1.0000
  C   C25       1.0  0.012931558447411118  0.04136474272454131  0.832933521206156  1.0000
  C   C26       1.0  0.9870684413578769  0.9586352566584636  0.16706647886970902  1.0000
  C   C27       1.0  0.06292003323422213  0.8062363943553406  0.8967149986505991  1.0000
  C   C28       1.0  0.9370799660429935  0.19376360629671618  0.10328500142653803  1.0000
  C   C29       1.0  0.15415459503934847  0.016127318345689447  0.9132039117867026  1.0000
  C   C30       1.0  0.8458454047659397  0.9838726810373154  0.0867960882891626  1.0000
  C   C31       1.0  0.21871351097207106  0.93414158511587  0.9594545592287891  1.0000
  C   C32       1.0  0.7812864883051447  0.06585841553618661  0.04054544084834796  1.0000
  C   C33       1.0  0.125030505224525  0.7197697214376285  0.9428424315789905  1.0000
  C   C34       1.0  0.8749694957545582  0.28023027791395866  0.05715756849567576  1.0000
  C   C35       1.0  0.2039202310093354  0.7834233925161745  0.9752303789036278  1.0000
  C   C36       1.0  0.7960797687959527  0.2165766068668304  0.02476962117223721  1.0000
  C   C37       1.0  0.2692990534796546  0.6955341798724417  0.02492127377100795  1.0000
  C   C38       1.0  0.7307009457975611  0.30446582077961504  0.975078726306129  1.0000
  C   C39       1.0  0.19300008251442152  0.5981782695865707  0.05550806725530989  1.0000
  C   C40       1.0  0.8069999184646617  0.40182172976501646  0.9444919328193564  1.0000
  C   C41       1.0  0.4087081755503702  0.709329787861149  0.04307822732332765  1.0000
  C   C42       1.0  0.591291825428713  0.2906702114904384  0.9569217727513385  1.0000
  C   C43       1.0  0.4677660826240376  0.6261799071241865  0.08984919501234657  1.0000
  C   C44       1.0  0.5322339166531781  0.37382009352787016  0.9101508050647904  1.0000
  C   C45       1.0  0.25654761651585284  0.5175859366324181  0.10224363749836632  1.0000
  C   C46       1.0  0.7434523832894352  0.4824140627505868  0.8977563625774988  1.0000
  C   C47       1.0  0.4587809879122507  0.4442794303379972  0.16829035898581315  1.0000
  C   C48       1.0  0.5412190130668324  0.5557205690135901  0.831709641088853  1.0000
  C   C49       1.0  0.3493748074312028  0.5444533372526977  0.22119063786141663  1.0000
  C   C50       1.0  0.6506251925876104  0.4555466621024647  0.778809361800833  1.0000
  C   C51       1.0  0.42657143152516547  0.451787447939191  0.27136274229511465  1.0000
  C   C52       1.0  0.5734285677520501  0.5482125527128657  0.7286372577820225  1.0000
  C   C53       1.0  0.32038979818098295  0.5377066474244855  0.3267967939451065  1.0000
  C   C54       1.0  0.6796102024835526  0.462293353168311  0.6732032057172161  1.0000
  C   C55       1.0  0.39504729965458374  0.430156317065149  0.3751782764243676  1.0000
  C   C56       1.0  0.6049527001507043  0.5698436823178559  0.6248217236514975  1.0000
  C   C57       1.0  0.3014663969704647  0.5082675119591498  0.43268187498788285  1.0000
  C   C58       1.0  0.6985336028348235  0.4917324874238553  0.5673181250879822  1.0000
  C   C59       1.0  0.3145510401136971  0.6712378404463414  0.4454243353441042  1.0000
  C   C60       1.0  0.6854489591635186  0.3287621602057152  0.5545756647330327  1.0000
  N   N1        1.0  0.3926675817619596  0.531379105799624  0.11826582512025788  1.0000
  N   N2        1.0  0.6073324175152561  0.46862089485243263  0.881734174956879  1.0000
  N   N3        1.0  0.0771376442988608  0.9524283304791556  0.8829826137383637  1.0000
  N   N4        1.0  0.9228623561521498  0.0475716701414834  0.11701738633757432  1.0000
  O   O1        1.0  0.17444943602655666  0.3379674446549289  0.9760366266867762  1.0000
  O   O2        1.0  0.8255505639922566  0.6620325547002336  0.023963372975473445  1.0000
  S   S1        1.0  0.09975612645014745  0.5398507046795166  0.7000312190562086  1.0000
  S   S2        1.0  0.9002438740008634  0.46014929594112247  0.2999687810197295  1.0000
  S   S3        1.0  0.9726120852464679  0.7243532264620786  0.6001628444610697  1.0000
  S   S4        1.0  0.02738791403074789  0.2756467741899781  0.3998371556160672  1.0000
  S   S5        1.0  0.6443013423092873  0.01779469944724394  0.6784071014575429  1.0000
  S   S6        1.0  0.3556986586697957  0.9822052999043435  0.32159289861712337  1.0000
  S   S7        1.0  0.7685549045007265  0.832685494018129  0.7784881066737805  1.0000
  S   S8        1.0  0.2314450953045616  0.16731450536487597  0.22151189340208452  1.0000
  Br  Br1       1.0  0.1830160561363435  0.38664922966808796  0.8422707743249994  1.0000
  Br  Br2       1.0  0.8169839443146671  0.6133507709525511  0.1577292257509387  1.0000
  Br  Br3       1.0  0.6374098889110191  0.8920382278796624  0.9233472378179133  1.0000
  Br  Br4       1.0  0.36259011228158916  0.10796177144408235  0.07665276184313756  1.0000
