data_image0
_chemical_formula_structural       H52C52N16O16I4
_chemical_formula_sum              "H52 C52 N16 O16 I4"
_cell_length_a       7.081654141393487
_cell_length_b       16.78201325274822
_cell_length_c       12.46956732137714
_cell_angle_alpha    90.0
_cell_angle_beta     99.80487725114804
_cell_angle_gamma    90.0

_space_group_name_H-M_alt    "P 1"
_space_group_IT_number       1

loop_
  _space_group_symop_operation_xyz
  'x, y, z'

loop_
  _atom_site_type_symbol
  _atom_site_label
  _atom_site_symmetry_multiplicity
  _atom_site_fract_x
  _atom_site_fract_y
  _atom_site_fract_z
  _atom_site_occupancy
  H   H1        1.0  0.5596566744158006  0.7031666077410315  0.7749163146548057  1.0000
  H   H2        1.0  0.4403433246830736  0.2031666075249734  0.7250836858892084  1.0000
  H   H3        1.0  0.4403433249064466  0.29683339269108466  0.22508368549573096  1.0000
  H   H4        1.0  0.5596566746391736  0.7968333923112667  0.2749163142613282  1.0000
  H   H5        1.0  0.6653939577974135  0.9215727557280599  0.957659900109377  1.0000
  H   H6        1.0  0.3346060427133629  0.42157275610787787  0.5423401004339808  1.0000
  H   H7        1.0  0.33460604152483364  0.07842724410818021  0.042340100041159526  1.0000
  H   H8        1.0  0.6653939580207865  0.5784272443242383  0.45765989971589954  1.0000
  H   H9        1.0  0.32960024085725137  0.9273288344860231  0.6358929576596745  1.0000
  H   H10       1.0  0.670399759653525  0.427328834865841  0.8641070428836835  1.0000
  H   H11       1.0  0.6703997598768981  0.07267116535021706  0.36410704249020603  1.0000
  H   H12       1.0  0.32960023966872204  0.572671164970399  0.13589295726685313  1.0000
  H   H13       1.0  0.005581327218392837  0.7359722045254246  0.24586053219754853  1.0000
  H   H14       1.0  0.9944186725724012  0.2359722049052426  0.2541394683733502  1.0000
  H   H15       1.0  0.9944186721038543  0.2640277953108155  0.754139467952988  1.0000
  H   H16       1.0  0.005581328161748068  0.7640277955268735  0.7458605317765301  1.0000
  H   H17       1.0  0.869974702452936  0.6313358445396859  0.12180245969844772  1.0000
  H   H18       1.0  0.13002529850458638  0.13133584432362785  0.37819754005795536  1.0000
  H   H19       1.0  0.13002529828121343  0.3686641552965541  0.8781975404514328  1.0000
  H   H20       1.0  0.8699747019843891  0.8686641555126122  0.6218024592780854  1.0000
  H   H21       1.0  0.05333954829553838  0.4618880621328689  0.3837017226158684  1.0000
  H   H22       1.0  0.9466604512500817  0.961888061753051  0.11629827714119077  1.0000
  H   H23       1.0  0.9466604507815346  0.5381119382992472  0.6162982767208286  1.0000
  H   H24       1.0  0.05333954948406764  0.038111938083189155  0.8837017230086895  1.0000
  H   H25       1.0  0.1863074020490093  0.5759051422758997  0.49539704284152936  1.0000
  H   H26       1.0  0.8136925974966108  0.07590514265571777  0.004602956915529802  1.0000
  H   H27       1.0  0.8136925972732378  0.4240948575603403  0.5046029573090072  1.0000
  H   H28       1.0  0.18630740323753853  0.9240948577763983  0.9953970432343505  1.0000
  H   H29       1.0  0.6730586052491682  0.5426619549659004  0.06569553891237863  1.0000
  H   H30       1.0  0.3269413957083542  0.04266195534571846  0.4343044608440244  1.0000
  H   H31       1.0  0.32694139548498113  0.45733804487033963  0.9343044612375018  1.0000
  H   H32       1.0  0.6730586050257952  0.9573380450863977  0.565695539305856  1.0000
  H   H33       1.0  0.6589396614122265  0.4378127855903578  0.04583844187549414  1.0000
  H   H34       1.0  0.34106033954529585  0.9378127858064159  0.45416155788090884  1.0000
  H   H35       1.0  0.34106033932192287  0.5621872142458822  0.9541615582743863  1.0000
  H   H36       1.0  0.6589396611888534  0.06218721402982421  0.5458384422689715  1.0000
  H   H37       1.0  0.8549218027053931  0.4927703932450272  0.009616216970791906  1.0000
  H   H38       1.0  0.14507819825212928  0.9927703934610853  0.4903837827856111  1.0000
  H   H39       1.0  0.14507819802875627  0.5072296065912127  0.9903837831790885  1.0000
  H   H40       1.0  0.85492180248202  0.007229606971030811  0.5096162173642693  1.0000
  H   H41       1.0  0.05025647593487171  0.3782183296131394  0.22729031858266568  1.0000
  H   H42       1.0  0.9497435238559223  0.8782183298291975  0.27270968198823303  1.0000
  H   H43       1.0  0.9497435247992777  0.6217816702231007  0.7727096815672149  1.0000
  H   H44       1.0  0.050256475466324696  0.1217816706029187  0.7272903181623034  1.0000
  H   H45       1.0  0.8227142876613874  0.3517190489069241  0.15172436714825474  1.0000
  H   H46       1.0  0.17728571354130895  0.8517190491229821  0.34827563342198786  1.0000
  H   H47       1.0  0.1772857130727619  0.648280950929316  0.8482756330016256  1.0000
  H   H48       1.0  0.8227142871928403  0.14828095130913396  0.6517243667278924  1.0000
  H   H49       1.0  0.8421293962116916  0.3794277244392742  0.29092249443104334  1.0000
  H   H50       1.0  0.15787060333392855  0.8794277246553323  0.2090775053260158  1.0000
  H   H51       1.0  0.15787060311055556  0.6205722753969659  0.7090775057194931  1.0000
  H   H52       1.0  0.8421293974002207  0.1205722751809078  0.7909224948238646  1.0000
  C   C1        1.0  0.43292708362886495  0.8101342184182564  0.6927308860916007  1.0000
  C   C2        1.0  0.5670729152248352  0.3101342182021983  0.8072691136385735  1.0000
  C   C3        1.0  0.5670729156933821  0.18986578201385979  0.3072691140589357  1.0000
  C   C4        1.0  0.432927084097412  0.6898657816340418  0.19273088651196302  1.0000
  C   C5        1.0  0.5404346872016003  0.7675110343445063  0.778546162112455  1.0000
  C   C6        1.0  0.4595653133091762  0.26751103412844823  0.7214538384309028  1.0000
  C   C7        1.0  0.45956531353254915  0.23248896549173378  0.22145383803742547  1.0000
  C   C8        1.0  0.5404346860130709  0.7324889657077919  0.2785461617196337  1.0000
  C   C9        1.0  0.6236969122386732  0.8092833800960031  0.8718201415795205  1.0000
  C   C10       1.0  0.3763030866150269  0.309283379879945  0.6281798581506538  1.0000
  C   C11       1.0  0.37630308708357385  0.190716619740237  0.12817985857101596  1.0000
  C   C12       1.0  0.6236969127072202  0.6907166199562951  0.3718201419998828  1.0000
  C   C13       1.0  0.6043927476917638  0.891129147901905  0.8830992288312747  1.0000
  C   C14       1.0  0.3956072525738385  0.39112914768584695  0.6169007708982435  1.0000
  C   C15       1.0  0.39560725138530917  0.10887085193433504  0.11690077050542218  1.0000
  C   C16       1.0  0.6043927481603109  0.6088708521503932  0.383099229251637  1.0000
  C   C17       1.0  0.5000737423617888  0.9314673456976398  0.7949143962370061  1.0000
  C   C18       1.0  0.49992625814898767  0.4314673454815818  0.7050856043063517  1.0000
  C   C19       1.0  0.49992625837236065  0.06853265473447634  0.20508560391287425  1.0000
  C   C20       1.0  0.5000737411732595  0.5685326543546584  0.2949143958441849  1.0000
  C   C21       1.0  0.41382695111335766  0.8927086336048887  0.7005267857734192  1.0000
  C   C22       1.0  0.5861730493974188  0.3927086333888307  0.7994732147699386  1.0000
  C   C23       1.0  0.5861730496207916  0.10729136623135127  0.2994732143764612  1.0000
  C   C24       1.0  0.41382694992482844  0.6072913664474093  0.20052678538059793  1.0000
  C   C25       1.0  0.012874516549732803  0.6745848951195466  0.27496253363632445  1.0000
  C   C26       1.0  0.9871254829958872  0.1745848954993646  0.22503746612073472  1.0000
  C   C27       1.0  0.9871254827725143  0.3254151047166935  0.7250374665142121  1.0000
  C   C28       1.0  0.012874517738262077  0.8254151049327516  0.7749625340291457  1.0000
  C   C29       1.0  0.9340775663428815  0.614885890303427  0.20439765599142895  1.0000
  C   C30       1.0  0.06592243320273855  0.11488589008736888  0.29560234376563016  1.0000
  C   C31       1.0  0.06592243273419159  0.3851141095328131  0.795602343345268  1.0000
  C   C32       1.0  0.9340775661195087  0.8851141097488712  0.7043976563849064  1.0000
  C   C33       1.0  0.9409252438626722  0.5349470397140729  0.24165531748229158  1.0000
  C   C34       1.0  0.059074755682947906  0.03494704009389087  0.25834468227476753  1.0000
  C   C35       1.0  0.059074755459574906  0.46505296012216724  0.7583446826682448  1.0000
  C   C36       1.0  0.9409252448060275  0.9650529603382253  0.7416553170612733  1.0000
  C   C37       1.0  0.0370158247351947  0.5216460086257172  0.34961571391185847  1.0000
  C   C38       1.0  0.9629841748104255  0.021646008409659193  0.15038428584520075  1.0000
  C   C39       1.0  0.9629841759989547  0.47835399121052286  0.650384286238022  1.0000
  C   C40       1.0  0.037015824511821664  0.9783539914265807  0.8496157143053358  1.0000
  C   C41       1.0  0.111373363934219  0.5858852100709584  0.4125775017414182  1.0000
  C   C42       1.0  0.8886266358565752  0.08588521045077643  0.08742249882948053  1.0000
  C   C43       1.0  0.888626635388028  0.4141147897652816  0.5874224984091182  1.0000
  C   C44       1.0  0.11137336487757432  0.9141147893854636  0.9125775013204  1.0000
  C   C45       1.0  0.7571833192507483  0.4875764949512259  0.06947898552935819  1.0000
  C   C46       1.0  0.24281668054004568  0.987576494571408  0.43052101504154056  1.0000
  C   C47       1.0  0.24281668007149865  0.5124235054808902  0.9305210146211783  1.0000
  C   C48       1.0  0.7571833201941037  0.012423505264832125  0.5694789851083398  1.0000
  C   C49       1.0  0.8957849812453418  0.3916862059993642  0.2146907755036744  1.0000
  C   C50       1.0  0.1042150183002783  0.8916862062154223  0.28530922425338473  1.0000
  C   C51       1.0  0.1042150180769053  0.6083137938368758  0.785309224646862  1.0000
  C   C52       1.0  0.8957849810219687  0.10831379421669386  0.7146907758971517  1.0000
  N   N1        1.0  0.7344564422147514  0.7650968859708978  0.9637643733737524  1.0000
  N   N2        1.0  0.26554355829602494  0.2650968863507157  0.5362356271696054  1.0000
  N   N3        1.0  0.26554355710749566  0.23490311386534238  0.03623562677678415  1.0000
  N   N4        1.0  0.7344564424381245  0.7349031140814004  0.463764372980275  1.0000
  N   N5        1.0  0.4770177330327978  0.01798618827515048  0.8017498326721855  1.0000
  N   N6        1.0  0.5229822672328046  0.5179861884912086  0.6982501670573327  1.0000
  N   N7        1.0  0.5229822674561776  0.9820138115610897  0.19825016666385534  1.0000
  N   N8        1.0  0.47701773350134474  0.4820138113450315  0.3017498330925477  1.0000
  N   N9        1.0  0.1003390843748724  0.6621056939149054  0.3781872358348426  1.0000
  N   N10       1.0  0.8996609151707476  0.16210569369884734  0.12181276392221653  1.0000
  N   N11       1.0  0.8996609147022008  0.3378943065172107  0.6218127635018542  1.0000
  N   N12       1.0  0.10033908415149942  0.8378943061373928  0.87818723622832  1.0000
  N   N13       1.0  0.8582825726069733  0.4736542308890319  0.17902908923304311  1.0000
  N   N14       1.0  0.1417174271838208  0.9736542311050899  0.3209709113378556  1.0000
  N   N15       1.0  0.14171742812717608  0.5263457689472081  0.8209709109168373  1.0000
  N   N16       1.0  0.8582825721384263  0.02634576873115006  0.6790290888126809  1.0000
  O   O1        1.0  0.7574695115913018  0.6924833436236801  0.9516729650741018  1.0000
  O   O2        1.0  0.24253048867430058  0.19248334340762202  0.5483270346554163  1.0000
  O   O3        1.0  0.24253048914284758  0.30751665621255997  0.04832703507577859  1.0000
  O   O4        1.0  0.7574695120598488  0.807516656428618  0.45167296549446406  1.0000
  O   O5        1.0  0.7967282266374942  0.8024930005221258  0.04812667205254375  1.0000
  O   O6        1.0  0.2032717729081259  0.30249300090194375  0.4518733277045154  1.0000
  O   O7        1.0  0.2032717726847529  0.1975069993141143  0.9518733280979929  1.0000
  O   O8        1.0  0.7967282264141212  0.6975069995301724  0.5481266724460211  1.0000
  O   O9        1.0  0.5391831062761456  0.05083969409095069  0.8897915942406531  1.0000
  O   O10       1.0  0.4608168925775545  0.5508396937111327  0.6102084054895212  1.0000
  O   O11       1.0  0.46081689280092747  0.9491603063411654  0.11020840509604382  1.0000
  O   O12       1.0  0.5391831067446927  0.4491603061251073  0.3897915946610154  1.0000
  O   O13       1.0  0.3953289005721766  0.053925884598607365  0.7195338326135222  1.0000
  O   O14       1.0  0.6046710996934258  0.5539258848146654  0.780466167115996  1.0000
  O   O15       1.0  0.6046710985048965  0.9460741152376327  0.2804661667231747  1.0000
  O   O16       1.0  0.3953289010407236  0.4460741156174507  0.2195338330338844  1.0000
  I   I1        1.0  0.28586566672668545  0.752516494284851  0.5514728376328807  1.0000
  I   I2        1.0  0.7141343323721886  0.25251649466466897  0.948527162911133  1.0000
  I   I3        1.0  0.7141343325955617  0.2474835055513891  0.4485271625176558  1.0000
  I   I4        1.0  0.28586566695005844  0.7474835051715711  0.051472837239403345  1.0000
