data_image0
_chemical_formula_structural       H118C94N16O2S6Br2
_chemical_formula_sum              "H118 C94 N16 O2 S6 Br2"
_cell_length_a       11.94580149190944
_cell_length_b       12.60512203367864
_cell_length_c       15.942774661908285
_cell_angle_alpha    84.04621600805511
_cell_angle_beta     71.60372409520909
_cell_angle_gamma    80.75498234365611

_space_group_name_H-M_alt    "P 1"
_space_group_IT_number       1

loop_
  _space_group_symop_operation_xyz
  'x, y, z'

loop_
  _atom_site_type_symbol
  _atom_site_label
  _atom_site_symmetry_multiplicity
  _atom_site_fract_x
  _atom_site_fract_y
  _atom_site_fract_z
  _atom_site_occupancy
  H   H1        1.0  0.5606225347923712  0.604363444492739  0.38305665103112607  1.0000
  H   H2        1.0  0.43937746515659887  0.3956365558873078  0.6169433488737542  1.0000
  H   H3        1.0  0.7693406612730472  0.6662382859151591  0.18521513261219258  1.0000
  H   H4        1.0  0.23065933880854736  0.333761713660733  0.8147848672987996  1.0000
  H   H5        1.0  0.7367410089879094  0.713978903970443  0.42621312974533926  1.0000
  H   H6        1.0  0.26325899109368517  0.28602109560544914  0.5737868701656531  1.0000
  H   H7        1.0  0.8769608159525808  0.7215544542469061  0.3113609023177633  1.0000
  H   H8        1.0  0.12303918412901367  0.278445545328986  0.6886390975932288  1.0000
  H   H9        1.0  0.6540868472478514  0.4729732731626039  0.3040729296245672  1.0000
  H   H10       1.0  0.34591315283374324  0.5270267264132883  0.695927070286425  1.0000
  H   H11       1.0  0.6382499227106735  0.7575026141406119  0.28396671556997805  1.0000
  H   H12       1.0  0.361750077370921  0.24249738543528018  0.7160332843410142  1.0000
  H   H13       1.0  0.31026514606855976  0.6599544943535784  0.4275813214571189  1.0000
  H   H14       1.0  0.6897348538804104  0.34004550602646827  0.5724186784477614  1.0000
  H   H15       1.0  0.33777440327398106  0.5808098342464745  0.5182793263480083  1.0000
  H   H16       1.0  0.6622255966749889  0.4191901661335723  0.4817206735568719  1.0000
  H   H17       1.0  0.4653352346649343  0.697534669770797  0.5398888856325278  1.0000
  H   H18       1.0  0.5346647654166602  0.3024653298050951  0.46011111427846446  1.0000
  H   H19       1.0  0.33278885355274324  0.7782155819380567  0.5313738772326404  1.0000
  H   H20       1.0  0.6672111461154439  0.2217844184038453  0.4686261233342641  1.0000
  H   H21       1.0  0.7210752413727493  0.26915340762550743  0.32897607919956534  1.0000
  H   H22       1.0  0.27892475870884537  0.7308465919503846  0.6710239207114268  1.0000
  H   H23       1.0  0.7603397426064165  0.09689637337257394  0.257244097653676  1.0000
  H   H24       1.0  0.23966025802890692  0.9031036261637092  0.7427559029260061  1.0000
  H   H25       1.0  0.659692105858504  0.07476584340580665  0.14424909740279315  1.0000
  H   H26       1.0  0.34030789409046613  0.9252341569742402  0.855750902502087  1.0000
  H   H27       1.0  0.4517736541720293  0.5006850752418806  0.19997368691814385  1.0000
  H   H28       1.0  0.5482263459095652  0.49931492433401153  0.8000263129928483  1.0000
  H   H29       1.0  0.6417174913159485  0.9023707021869223  0.5372972915700359  1.0000
  H   H30       1.0  0.3582825087656462  0.0976292973889699  0.4627027083409562  1.0000
  H   H31       1.0  0.5977580650079667  0.7711965635596868  0.5596300786270656  1.0000
  H   H32       1.0  0.402241934792845  0.22880343597806072  0.44036992194595076  1.0000
  H   H33       1.0  0.28268222997436226  0.6143861141286049  0.3011031845073642  1.0000
  H   H34       1.0  0.7173177701072322  0.38561388544728725  0.698896815403628  1.0000
  H   H35       1.0  0.06930886306994906  0.6830993983761505  0.3339718532207317  1.0000
  H   H36       1.0  0.9306911368790213  0.3169006020038965  0.6660281466841486  1.0000
  H   H37       1.0  0.840639201748307  0.9531138175351564  0.1982853618793927  1.0000
  H   H38       1.0  0.15936079833328745  0.046886182040735545  0.8017146380315997  1.0000
  H   H39       1.0  0.36846292187312746  0.8547451609972471  0.08588584622558856  1.0000
  H   H40       1.0  0.6315370780758428  0.1452548393827999  0.9141141536792916  1.0000
  H   H41       1.0  0.3733800276262761  0.48553123614172616  0.07659672822931558  1.0000
  H   H42       1.0  0.6266199724553184  0.5144687634341659  0.9234032716816767  1.0000
  H   H43       1.0  0.447060787691095  0.9164659746513194  0.5156343549189915  1.0000
  H   H44       1.0  0.5529392122578752  0.08353402572872759  0.48436564498588874  1.0000
  H   H45       1.0  0.5594766512935145  0.9394537335897193  0.4140686427174135  1.0000
  H   H46       1.0  0.4405233486554556  0.06054626679032766  0.5859313571874667  1.0000
  H   H47       1.0  0.4338417253201335  0.7034023527895804  0.17796325113109732  1.0000
  H   H48       1.0  0.566158274761461  0.2965976467863116  0.822036748779895  1.0000
  H   H49       1.0  1.5885620662239185e-05  0.44983494685274844  0.8321285790849957  1.0000
  H   H50       1.0  0.9999841144609324  0.5501650527231436  0.1678714208259966  1.0000
  H   H51       1.0  0.6832021878131869  0.5495780189251974  0.11315593222157881  1.0000
  H   H52       1.0  0.3167978122684078  0.4504219806506947  0.8868440676894134  1.0000
  H   H53       1.0  0.08730293236098062  0.6132728599296313  0.8298471594316831  1.0000
  H   H54       1.0  0.9126970677206138  0.38672713964626093  0.1701528404793091  1.0000
  H   H55       1.0  0.46423174475034323  0.9168028163596313  0.2269546771056862  1.0000
  H   H56       1.0  0.535768255198627  0.0831971840204156  0.7730453227991941  1.0000
  H   H57       1.0  0.5441282040619082  0.9646014325561619  0.2881594944079454  1.0000
  H   H58       1.0  0.45587179588706206  0.035398567823884966  0.7118405054969349  1.0000
  H   H59       1.0  0.35738284425145606  0.910978650985933  0.3910175620714796  1.0000
  H   H60       1.0  0.6426171566646504  0.089021348588495  0.6089824378461782  1.0000
  H   H61       1.0  0.38493125648752036  0.785253766353588  0.3421681654443854  1.0000
  H   H62       1.0  0.615068743180667  0.21474623398831413  0.657831835122519  1.0000
  H   H63       1.0  0.9260794606834907  0.8347513797209273  0.03769789163348852  1.0000
  H   H64       1.0  0.07392053926547959  0.16524862065911972  0.9623021082713917  1.0000
  H   H65       1.0  0.8465061667448496  0.329960966024837  0.9055057117754128  1.0000
  H   H66       1.0  0.15349383333674504  0.6700390335510551  0.09449428813557935  1.0000
  H   H67       1.0  0.6888310593589737  0.38075723535846295  0.04487720375639596  1.0000
  H   H68       1.0  0.3111689405899966  0.6192427650215839  0.9551227961484843  1.0000
  H   H69       1.0  0.08311799619382361  0.784646340066713  0.8956327400523114  1.0000
  H   H70       1.0  0.9168820037551467  0.21535366031333397  0.10436725985256878  1.0000
  H   H71       1.0  0.41157420799599165  0.3113645449662032  0.0040174518127063085  1.0000
  H   H72       1.0  0.5884257919529785  0.6886354554138437  0.995982548092174  1.0000
  H   H73       1.0  0.5321455669176707  0.15344766177368485  0.0543377958931653  1.0000
  H   H74       1.0  0.46785443303129953  0.846552338606362  0.945662204011715  1.0000
  H   H75       1.0  0.20573934898122193  0.9740811508356421  0.04318721748708772  1.0000
  H   H76       1.0  0.7942606511003727  0.025918848740249835  0.9568127824239044  1.0000
  H   H77       1.0  0.9895486191431033  0.03583056364856244  0.07168524777044592  1.0000
  H   H78       1.0  0.010451380525083915  0.9641694366933397  0.9283147527964585  1.0000
  H   H79       1.0  0.1672614860355933  0.11951595453630007  0.4414646611133324  1.0000
  H   H80       1.0  0.8327385139133768  0.8804840458437468  0.5585353387915479  1.0000
  H   H81       1.0  0.27154590454949123  0.09574670820525953  0.33644879883061  1.0000
  H   H82       1.0  0.7284540955321033  0.9042532913706327  0.6635512010803821  1.0000
  H   H83       1.0  0.037248741890946936  0.9946171341986385  0.4024982819028523  1.0000
  H   H84       1.0  0.9627512581906476  0.005382865377253628  0.5975017180081399  1.0000
  H   H85       1.0  0.1731952704189966  0.9351340920846268  0.41977869686320257  1.0000
  H   H86       1.0  0.8268047295299735  0.06486590829542008  0.5802213030416776  1.0000
  H   H87       1.0  0.1630816867749287  0.9576784055967342  0.31063997125060216  1.0000
  H   H88       1.0  0.8369183128932586  0.04232159474516786  0.6893600293163022  1.0000
  H   H89       1.0  0.15506518420924176  0.3864960853426859  0.2144050279131458  1.0000
  H   H90       1.0  0.8449348158723529  0.6135039142332062  0.7855949719978464  1.0000
  H   H91       1.0  0.17722086418260544  0.455320723406016  0.2975274196534588  1.0000
  H   H92       1.0  0.822779135898989  0.5446792761698762  0.7024725802575336  1.0000
  H   H93       1.0  0.03566755212041536  0.4175120513659133  0.312970482241127  1.0000
  H   H94       1.0  0.964332447961179  0.5824879482099788  0.6870295176698653  1.0000
  H   H95       1.0  0.27064835295406464  0.2644945231685366  0.298254186007452  1.0000
  H   H96       1.0  0.72935164712753  0.7355054764073554  0.7017458139035402  1.0000
  H   H97       1.0  0.16611833695651335  0.3002102593110175  0.4004673301057145  1.0000
  H   H98       1.0  0.8338816629924568  0.6997897410690292  0.5995326697991658  1.0000
  H   H99       1.0  0.9435671197633982  0.14250909168584036  0.3808715760137418  1.0000
  H   H100      1.0  0.05643288031819637  0.8574909078900518  0.6191284238972504  1.0000
  H   H101      1.0  0.9438571564649416  0.2815985565399965  0.35029325488971474  1.0000
  H   H102      1.0  0.05614284348402848  0.7184014438400504  0.6497067450151655  1.0000
  H   H103      1.0  0.996440393663861  0.17275882768339004  0.5195045050530852  1.0000
  H   H104      1.0  0.003559606136950514  0.8272411718543574  0.4804954955199312  1.0000
  H   H105      1.0  0.8617573293480194  0.2491674552795121  0.5129777088626466  1.0000
  H   H106      1.0  0.13824267073357507  0.7508325442963801  0.4870222910483456  1.0000
  H   H107      1.0  0.9902636050316637  0.3129446751970134  0.4882655863229146  1.0000
  H   H108      1.0  0.009736394917306435  0.6870553251830336  0.5117344135819657  1.0000
  H   H109      1.0  0.06959559495483411  0.09851038396059947  0.24916911678273523  1.0000
  H   H110      1.0  0.9304044049941361  0.9014896164194474  0.7508308831221449  1.0000
  H   H111      1.0  0.06345684283260643  0.23737296149525908  0.21740192811537914  1.0000
  H   H112      1.0  0.9365431572489882  0.762627038080633  0.782598071795613  1.0000
  H   H113      1.0  0.28493635209561463  0.22233528140342426  0.1623708888321326  1.0000
  H   H114      1.0  0.7150636478533555  0.7776647189766226  0.8376291110727476  1.0000
  H   H115      1.0  0.23234031109676961  0.1320757608469418  0.1117672078312161  1.0000
  H   H116      1.0  0.7676596888522005  0.867924239533105  0.8882327920736641  1.0000
  H   H117      1.0  0.29823372396300696  0.082828365468344  0.19564358568398804  1.0000
  H   H118      1.0  0.7017662759859634  0.917171634911703  0.8043564142208922  1.0000
  C   C1        1.0  0.4746786798942603  0.4839120261660821  0.3646467225909461  1.0000
  C   C2        1.0  0.5253213201873342  0.5160879734098102  0.6353532773200462  1.0000
  C   C3        1.0  0.37879496138075036  0.6337311858721214  0.46095700956361846  1.0000
  C   C4        1.0  0.6212050385682198  0.3662688145079256  0.5390429903412618  1.0000
  C   C5        1.0  0.5970655124530643  0.3446091840422916  0.26249260732241014  1.0000
  C   C6        1.0  0.4029344876285303  0.6553908155336006  0.7375073925885821  1.0000
  C   C7        1.0  0.5418593806440813  0.3369083403335502  0.19634374082221542  1.0000
  C   C8        1.0  0.4581406194375133  0.6630916592423418  0.8036562590887768  1.0000
  C   C9        1.0  0.41507116321636406  0.7283270897672947  0.49339397189338224  1.0000
  C   C10       1.0  0.5849288368652306  0.2716729098085974  0.5066060280176099  1.0000
  C   C11       1.0  0.5665627337835819  0.23748485256722152  0.15320408087889176  1.0000
  C   C12       1.0  0.43343726601722976  0.7625151469705258  0.8467959196941247  1.0000
  C   C13       1.0  0.6770439395389872  0.2601533026988536  0.2803465491472491  1.0000
  C   C14       1.0  0.3229560602618242  0.7398466968388937  0.7196534514257674  1.0000
  C   C15       1.0  0.7001052620815716  0.1624605247762716  0.2381567911644736  1.0000
  C   C16       1.0  0.29989473800002286  0.8375394747996205  0.7618432087465187  1.0000
  C   C17       1.0  0.644402649227214  0.15036007716130073  0.1767405005930112  1.0000
  C   C18       1.0  0.3555973508543804  0.8496399224145914  0.8232594993179811  1.0000
  C   C19       1.0  0.47006044241475314  0.4249679974255907  0.16789842671377378  1.0000
  C   C20       1.0  0.5299395575342172  0.5750320029544562  0.8321015731911064  1.0000
  C   C21       1.0  0.6234669315731227  0.8348269097444839  0.5074779597129474  1.0000
  C   C22       1.0  0.3765330683758474  0.16517309063556282  0.4925220401919328  1.0000
  C   C23       1.0  0.8079297547601324  0.8538845309423219  0.3843915992631817  1.0000
  C   C24       1.0  0.19207024532146205  0.14611546863357017  0.6156084006478105  1.0000
  C   C25       1.0  0.09415487853170831  0.8065982166787312  0.2266041749197403  1.0000
  C   C26       1.0  0.9058451215498863  0.1934017828971609  0.7733958249912519  1.0000
  C   C27       1.0  0.9712418236579671  0.8471484343686575  0.24242828988561033  1.0000
  C   C28       1.0  0.028758176291003204  0.1528515660113894  0.75757171001927  1.0000
  C   C29       1.0  0.25410547910534986  0.6828341184400786  0.2611906248698063  1.0000
  C   C30       1.0  0.7458945209762449  0.3171658811358136  0.7388093750411859  1.0000
  C   C31       1.0  0.13434878076175444  0.7204763883397122  0.2793783411678982  1.0000
  C   C32       1.0  0.8656512193198401  0.27952361123617986  0.7206216587430941  1.0000
  C   C33       1.0  0.1799946405169107  0.8546466284404949  0.15379821014061162  1.0000
  C   C34       1.0  0.8200053591512767  0.14535337190140718  0.8462017904262928  1.0000
  C   C35       1.0  0.9353913674672123  0.9270950953078859  0.18658104769699577  1.0000
  C   C36       1.0  0.06460863261438231  0.0729049042680062  0.8134189522139964  1.0000
  C   C37       1.0  0.302728020438971  0.8164235092190524  0.13917732307242506  1.0000
  C   C38       1.0  0.6972719795099992  0.18357649116099461  0.8608226768324552  1.0000
  C   C39       1.0  0.4261171332117846  0.4164063141164444  0.0989961671128786  1.0000
  C   C40       1.0  0.5738828667371856  0.5835936862636023  0.9010038327920017  1.0000
  C   C41       1.0  0.5255809041443864  0.8771323066771931  0.46522077498895265  1.0000
  C   C42       1.0  0.47441909593720805  0.12286769289869906  0.5347792249220396  1.0000
  C   C43       1.0  0.3390600867970349  0.7319977070430461  0.19114622762214906  1.0000
  C   C44       1.0  0.6609399141190714  0.26800229253138186  0.8088537722955088  1.0000
  C   C45       1.0  0.8392145602487043  0.5979516668338622  0.011632226995845141  1.0000
  C   C46       1.0  0.16078543983289018  0.4020483327420298  0.9883677729151472  1.0000
  C   C47       1.0  0.6709465844645973  0.8037317294890123  0.15159085006767947  1.0000
  C   C48       1.0  0.32905341548437284  0.19626827089103452  0.8484091498372008  1.0000
  C   C49       1.0  0.8408131615230887  0.6957262377708411  0.04850087303571997  1.0000
  C   C50       1.0  0.159186838558506  0.304273761805051  0.9514991268752723  1.0000
  C   C51       1.0  0.929789002181172  0.5690994672234548  0.9305789687760917  1.0000
  C   C52       1.0  0.0702109977677982  0.43090053315659205  0.06942103112878856  1.0000
  C   C53       1.0  0.9304685083978564  0.4711305915395655  0.8936499844720904  1.0000
  C   C54       1.0  0.06953149155111396  0.5288694088404814  0.10635001543278977  1.0000
  C   C55       1.0  0.7528058992011825  0.5278914219548348  0.05190421008963589  1.0000
  C   C56       1.0  0.2471941008804122  0.4721085776210573  0.9480957898213564  1.0000
  C   C57       1.0  0.016751413845020515  0.6382337415255646  0.8898160397603451  1.0000
  C   C58       1.0  0.9832485861039498  0.36176625885448227  0.11018396014453517  1.0000
  C   C59       1.0  0.511888572643582  0.8920207606241749  0.2761020736749225  1.0000
  C   C60       1.0  0.4881114274380125  0.10797923895171717  0.7238979262360697  1.0000
  C   C61       1.0  0.428240375843181  0.8458082893962396  0.3605528852697078  1.0000
  C   C62       1.0  0.5717596242384134  0.1541917101796523  0.6394471146412846  1.0000
  C   C63       1.0  0.9258088847820687  0.7621980257954575  0.006265719931124822  1.0000
  C   C64       1.0  0.07419111529952589  0.23780197378043463  0.9937342799798675  1.0000
  C   C65       1.0  0.8453935348625545  0.4048897367314441  0.9343476363406286  1.0000
  C   C66       1.0  0.15460646508641573  0.5951102636486028  0.06565236356425169  1.0000
  C   C67       1.0  0.7559347452382195  0.43360891092784204  0.013878016069425344  1.0000
  C   C68       1.0  0.2440652547107508  0.5663910894522048  0.9861219838354549  1.0000
  C   C69       1.0  0.014135945736691042  0.7333592076628621  0.9266598838886766  1.0000
  C   C70       1.0  0.9858640542122792  0.26664079271718477  0.0733401160162036  1.0000
  C   C71       1.0  0.44889682055616315  0.3182453372887188  0.05712119070868274  1.0000
  C   C72       1.0  0.5511031793928071  0.6817546630913283  0.9428788091961975  1.0000
  C   C73       1.0  0.5163112687886263  0.23041523750391907  0.08465378067158887  1.0000
  C   C74       1.0  0.4836887311603438  0.7695847628761279  0.9153462192332914  1.0000
  C   C75       1.0  0.14022460932122474  0.9381227826308715  0.09866668118443322  1.0000
  C   C76       1.0  0.859775390479587  0.06187721690687579  0.9013333193885832  1.0000
  C   C77       1.0  0.02012829533078796  0.9728768371727912  0.11470068925960485  1.0000
  C   C78       1.0  0.9798717046181823  0.027123163207255725  0.8852993106452755  1.0000
  C   C79       1.0  0.17693239534266272  0.09847864465865863  0.3742705008669695  1.0000
  C   C80       1.0  0.8230676047389318  0.9015213549172335  0.6257294990440228  1.0000
  C   C81       1.0  0.13436995104617958  0.9912668215376814  0.3759893346798456  1.0000
  C   C82       1.0  0.8656300490354151  0.008733178038210566  0.6240106652311467  1.0000
  C   C83       1.0  0.1317072157227215  0.3917614144262543  0.2861262574332138  1.0000
  C   C84       1.0  0.8682927849126019  0.6082385851100292  0.7138737431464683  1.0000
  C   C85       1.0  0.17576019456813194  0.2892466685071387  0.33107268769077475  1.0000
  C   C86       1.0  0.8242398055134625  0.7107533310687534  0.6689273122202175  1.0000
  C   C87       1.0  0.9824847878667377  0.21390586274856832  0.3860403767123364  1.0000
  C   C88       1.0  0.017515211934073942  0.7860941367891789  0.6139596238606801  1.0000
  C   C89       1.0  0.9585512012242645  0.23836836571949305  0.48168866480666034  1.0000
  C   C90       1.0  0.0414487988573302  0.761631633856399  0.5183113351043318  1.0000
  C   C91       1.0  0.11689949832789925  0.16857014373667703  0.24050646538234613  1.0000
  C   C92       1.0  0.8831005014729122  0.8314298558010703  0.7594935351906703  1.0000
  C   C93       1.0  0.24024408301875716  0.1504099500520847  0.1753085696827392  1.0000
  C   C94       1.0  0.7597559170628374  0.8495900495238076  0.8246914302282531  1.0000
  N   N1        1.0  0.48963143025203687  0.7948717744477815  0.42389280541345775  1.0000
  N   N2        1.0  0.5103685695487747  0.20512822508996595  0.5761071951595587  1.0000
  N   N3        1.0  0.481189974295978  0.5741332974224314  0.4007113255613157  1.0000
  N   N4        1.0  0.5188100253722091  0.4258667029194708  0.5992886750055888  1.0000
  N   N5        1.0  0.7595895125686432  0.7190859386754695  0.13313084880199158  1.0000
  N   N6        1.0  0.240410487380327  0.2809140617045774  0.8668691511028886  1.0000
  N   N7        1.0  0.7331906220221602  0.7911648702480268  0.4430834731959361  1.0000
  N   N8        1.0  0.2668093780594343  0.2088351293278652  0.5569165267150561  1.0000
  N   N9        1.0  0.8860607813346599  0.801118983385589  0.314529579160737  1.0000
  N   N10       1.0  0.1139392187469346  0.19888101619030307  0.6854704207502553  1.0000
  N   N11       1.0  0.5785307525801501  0.4415674369198127  0.30563751736599537  1.0000
  N   N12       1.0  0.42146924750144465  0.5584325626560793  0.6943624825449968  1.0000
  N   N13       1.0  0.6110465979733791  0.8107860844497597  0.23900863453705343  1.0000
  N   N14       1.0  0.38895340197559103  0.18921391593028714  0.7609913653678267  1.0000
  N   N15       1.0  0.11318854748280513  0.19269343651348791  0.3327551007560313  1.0000
  N   N16       1.0  0.8868114525987894  0.8073065630624041  0.6672448991549609  1.0000
  O   O1        1.0  0.043165751400293315  0.4738334646377934  0.5114672267281412  1.0000
  O   O2        1.0  0.9568342484005183  0.5261665348999539  0.4885327738448753  1.0000
  S   S1        1.0  0.34698159120640115  0.42948806261055156  0.3924304252896181  1.0000
  S   S2        1.0  0.653018408461786  0.5705119377313506  0.6075695752772864  1.0000
  S   S3        1.0  0.8057447022959497  0.9850748808220645  0.4002403318181688  1.0000
  S   S4        1.0  0.19425529778564485  0.014925118753827736  0.5997596680928233  1.0000
  S   S5        1.0  0.6353081285696074  0.8902873728316815  0.07291928210892698  1.0000
  S   S6        1.0  0.3646918713793628  0.10971262754836553  0.9270807177959532  1.0000
  Br  Br1       1.0  0.7930295111120316  0.5669981760761507  0.31686015802562645  1.0000
  Br  Br2       1.0  0.2069704885561555  0.4330018242657515  0.6831398425412781  1.0000
