data_image0
_chemical_formula_structural       H118C94N16O2S6Cl2
_chemical_formula_sum              "H118 C94 N16 O2 S6 Cl2"
_cell_length_a       11.72925600142245
_cell_length_b       12.764004502009058
_cell_length_c       15.910351220432501
_cell_angle_alpha    84.65100518940274
_cell_angle_beta     70.76095262666425
_cell_angle_gamma    80.67771233085553

_space_group_name_H-M_alt    "P 1"
_space_group_IT_number       1

loop_
  _space_group_symop_operation_xyz
  'x, y, z'

loop_
  _atom_site_type_symbol
  _atom_site_label
  _atom_site_symmetry_multiplicity
  _atom_site_fract_x
  _atom_site_fract_y
  _atom_site_fract_z
  _atom_site_occupancy
  H   H1        1.0  0.3631634888338416  0.09984721629336263  0.9566085218163057  1.0000
  H   H2        1.0  0.6368365110972216  0.9001527834243672  0.04339147826531762  1.0000
  H   H3        1.0  0.4110134119378184  0.22771148363308716  0.9368649306699871  1.0000
  H   H4        1.0  0.5889865878613956  0.7722885168788266  0.06313506940592592  1.0000
  H   H5        1.0  0.931067308947134  0.3254254311158336  0.16703191368868797  1.0000
  H   H6        1.0  0.06893269098392907  0.6745745686018964  0.8329680863929354  1.0000
  H   H7        1.0  0.7772601760312123  0.03924492134050204  0.45547364036273846  1.0000
  H   H8        1.0  0.222739823899851  0.9607550783772278  0.5445263597188849  1.0000
  H   H9        1.0  0.9965034414430536  0.9727562393858734  0.4273479353439087  1.0000
  H   H10       1.0  0.003496558356160511  0.02724376112604039  0.5726520647320044  1.0000
  H   H11       1.0  0.6151959809862962  0.1615961313338436  0.4136383837122764  1.0000
  H   H12       1.0  0.384804018944767  0.8384038683838863  0.586361616369347  1.0000
  H   H13       1.0  0.7136181178320059  0.39595768530509007  0.19863955193860422  1.0000
  H   H14       1.0  0.286381882951029  0.604042314407291  0.8013604481464002  1.0000
  H   H15       1.0  0.15449674353861223  0.05102703518067505  0.30116714227983454  1.0000
  H   H16       1.0  0.8455032562606019  0.9489729653312388  0.6988328577960785  1.0000
  H   H17       1.0  0.26839870309863556  0.28563212210995936  0.07109244819844271  1.0000
  H   H18       1.0  0.7316012968324277  0.7143678776077707  0.9289075518831806  1.0000
  H   H19       1.0  0.12863525286309285  0.27966619040699336  0.1893921199335209  1.0000
  H   H20       1.0  0.8713647469361214  0.7203338101049205  0.8106078801423922  1.0000
  H   H21       1.0  0.31920266272449493  0.446760069770792  0.39111422237333826  1.0000
  H   H22       1.0  0.6807973372065682  0.5532399299469379  0.6088857777082852  1.0000
  H   H23       1.0  0.07860340423190013  0.16016438720439585  0.46117607097286695  1.0000
  H   H24       1.0  0.9213965959964602  0.8398356125404876  0.5388239284424803  1.0000
  H   H25       1.0  0.541477298210458  0.07567963093412634  0.2688978529072075  1.0000
  H   H26       1.0  0.45852270172060505  0.9243203687836036  0.7311021471744159  1.0000
  H   H27       1.0  0.4637268476049921  0.027896427349792034  0.2055301394812983  1.0000
  H   H28       1.0  0.5362731523260709  0.9721035723679379  0.7944698606003251  1.0000
  H   H29       1.0  0.3044319762611614  0.6149142431303428  0.46186309609678033  1.0000
  H   H30       1.0  0.6955680236699017  0.3850857565873871  0.5381369039848432  1.0000
  H   H31       1.0  0.8986391623183646  0.379347262316307  0.6710882819028546  1.0000
  H   H32       1.0  0.10136083761269853  0.6206527374014229  0.3289117181787689  1.0000
  H   H33       1.0  0.9115954858446632  0.20889396360219972  0.6031251043871901  1.0000
  H   H34       1.0  0.08840451408639985  0.7911060361155302  0.39687489569443335  1.0000
  H   H35       1.0  0.13602878422625905  0.6639555634462667  0.6008260822543833  1.0000
  H   H36       1.0  0.8639712155729549  0.33604443706564713  0.3991739178215299  1.0000
  H   H37       1.0  0.6208087865003614  0.20848108601761475  0.15627676186277928  1.0000
  H   H38       1.0  0.3791912132988527  0.791518914494299  0.8437232382131339  1.0000
  H   H39       1.0  0.6529558721331148  0.08626721614098114  0.10237332590910217  1.0000
  H   H40       1.0  0.3470441277979486  0.9137327835767487  0.8976266741725212  1.0000
  H   H41       1.0  0.9819507995679766  0.542853066519042  0.6719568803372388  1.0000
  H   H42       1.0  0.018049200363086444  0.4571469331986879  0.3280431197443847  1.0000
  H   H43       1.0  0.6671684540818442  0.41437101663234177  0.9837513816788723  1.0000
  H   H44       1.0  0.33283154601466686  0.5856289839067256  0.016248617730764563  1.0000
  H   H45       1.0  0.6916669604905195  0.3364864076656468  0.07475707043655778  1.0000
  H   H46       1.0  0.30833303944054374  0.663513592052083  0.9252429296450656  1.0000
  H   H47       1.0  0.26384044588759825  0.7246961660841486  0.17087272807750511  1.0000
  H   H48       1.0  0.736159554340762  0.275303833660735  0.829127271337842  1.0000
  H   H49       1.0  0.2237983176100678  0.89765249900846  0.24148406165614117  1.0000
  H   H50       1.0  0.7762016823209954  0.10234750070926991  0.7585159384254823  1.0000
  H   H51       1.0  0.5406541656549094  0.5011393784193329  0.29812454840153924  1.0000
  H   H52       1.0  0.4593458342761538  0.4988606212983971  0.7018754516800841  1.0000
  H   H53       1.0  0.3284262995443101  0.9230735481130047  0.3514908938051603  1.0000
  H   H54       1.0  0.6715737003867531  0.0769264516047252  0.6485091062764631  1.0000
  H   H55       1.0  0.6232110000413786  0.5212228498483439  0.4188416165325796  1.0000
  H   H56       1.0  0.3767889997578353  0.47877715066357  0.5811583835433335  1.0000
  H   H57       1.0  0.46143931898028245  0.8501423629485119  0.43816448161689986  1.0000
  H   H58       1.0  0.5385606808189317  0.14985763756340198  0.5618355184590133  1.0000
  H   H59       1.0  0.5850972637019666  0.6962470235291194  0.4887151624443812  1.0000
  H   H60       1.0  0.41490273609724754  0.3037529769827945  0.511284837631532  1.0000
  H   H61       1.0  0.5388570676934495  0.29856437755793475  0.9599700007470008  1.0000
  H   H62       1.0  0.46114293308958515  0.7014356221544462  0.04002999933800375  1.0000
  H   H63       1.0  0.676150349365919  0.22111261010145122  0.9658084632597252  1.0000
  H   H64       1.0  0.3238496514171158  0.7788873896109295  0.03419153682527915  1.0000
  H   H65       1.0  0.4364556509165266  0.3892227549509641  0.12003927710679943  1.0000
  H   H66       1.0  0.5635443490145365  0.6107772447667658  0.879960722974824  1.0000
  H   H67       1.0  0.33615545171302436  0.5216011666352682  0.19667616964544235  1.0000
  H   H68       1.0  0.6638445482180387  0.4783988330824616  0.803323830436181  1.0000
  H   H69       1.0  0.23962371278047137  0.32857766045054027  0.31553366076551764  1.0000
  H   H70       1.0  0.7603762871505918  0.6714223392671896  0.6844663393161058  1.0000
  H   H71       1.0  0.36326582626507203  0.23212952252398403  0.21515544387260577  1.0000
  H   H72       1.0  0.636734173534142  0.7678704779879298  0.7848445562033074  1.0000
  H   H73       1.0  0.5543674563181218  0.31162424896798213  0.3213554368659813  1.0000
  H   H74       1.0  0.44563254361294147  0.6883757507497478  0.678644563215642  1.0000
  H   H75       1.0  0.4430667019143334  0.05932042293717665  0.0809475891783585  1.0000
  H   H76       1.0  0.5569332980167297  0.9406795767805531  0.919052410903265  1.0000
  H   H77       1.0  0.5611805207082301  0.08096632244858405  0.9798200873755745  1.0000
  H   H78       1.0  0.43881947922283304  0.919033677269146  0.020179912706048932  1.0000
  H   H79       1.0  0.054148264745796613  0.7035041042267433  0.13775991957677436  1.0000
  H   H80       1.0  0.9458517351852666  0.29649589549098676  0.862240080504849  1.0000
  H   H81       1.0  0.06619727483456804  0.8403437824171229  0.11340124833337896  1.0000
  H   H82       1.0  0.933802725096495  0.15965621730060686  0.8865987517482444  1.0000
  H   H83       1.0  0.992333139664289  0.6915270918365622  0.0031343130571825565  1.0000
  H   H84       1.0  0.007666860134925001  0.3084729086753516  0.9968656870187306  1.0000
  H   H85       1.0  0.1289546111469187  0.7473979554662192  0.9745971581779544  1.0000
  H   H86       1.0  0.8710453887841445  0.2526020442515106  0.02540284190366899  1.0000
  H   H87       1.0  0.991547838943564  0.8308310282370267  0.9798389993992207  1.0000
  H   H88       1.0  0.008452160855650074  0.16916897227488706  0.020161000676692416  1.0000
  H   H89       1.0  0.9468718658211019  0.5707670595820552  0.17240045636473353  1.0000
  H   H90       1.0  0.05312813410996136  0.42923294013567465  0.8275995437168898  1.0000
  H   H91       1.0  0.7915862469763346  0.5564690705999257  0.2243410429770551  1.0000
  H   H92       1.0  0.20841375312017665  0.4435309299391417  0.7756589564325819  1.0000
  H   H93       1.0  0.866823267956155  0.6169856950498503  0.28185732949213194  1.0000
  H   H94       1.0  0.133176731843059  0.3830143054620635  0.7181426705837811  1.0000
  H   H95       1.0  0.8098920774370704  0.7055461211119685  0.11018254188091972  1.0000
  H   H96       1.0  0.19010792249399286  0.2944538786057615  0.8898174582007037  1.0000
  H   H97       1.0  0.7205305089153302  0.7430838538802276  0.218647472219828  1.0000
  H   H98       1.0  0.27946949118118086  0.25691614665883994  0.7813525271898089  1.0000
  H   H99       1.0  0.7080342079638865  0.9033166250420144  0.3184158403863123  1.0000
  H   H100      1.0  0.2919657928191484  0.09668337467036661  0.681584159698692  1.0000
  H   H101      1.0  0.7921262470863109  0.8623870256285457  0.39237284951236473  1.0000
  H   H102      1.0  0.20787375356487484  0.13761297487801893  0.6076271505669295  1.0000
  H   H103      1.0  0.7365411149309833  0.7665287182472144  0.3499358787569401  1.0000
  H   H104      1.0  0.2634588848682309  0.23347128226469938  0.650064121318973  1.0000
  H   H105      1.0  0.9583679356268371  0.7617089537572531  0.2745479853345916  1.0000
  H   H106      1.0  0.041632064304226085  0.23829104596047682  0.7254520147470318  1.0000
  H   H107      1.0  0.9413131172829052  0.898990725843077  0.24611880850430146  1.0000
  H   H108      1.0  0.05868688264815786  0.10100927387465282  0.753881191577322  1.0000
  H   H109      1.0  0.8234239991544995  0.8791230173010081  0.065927062343759  1.0000
  H   H110      1.0  0.17657600077656377  0.1208769824167219  0.9340729377378644  1.0000
  H   H111      1.0  0.7265488850294992  0.9073637338140323  0.17480189973014248  1.0000
  H   H112      1.0  0.27345111490156426  0.09263626590369742  0.8251981003514808  1.0000
  H   H113      1.0  0.8430441223618597  0.04255987452338683  0.18833354307023667  1.0000
  H   H114      1.0  0.15695587773465147  0.9574401260156807  0.8116664563394002  1.0000
  H   H115      1.0  0.8450741021961803  0.05590602428522639  0.07589783610818494  1.0000
  H   H116      1.0  0.15492589845500554  0.9440939762213384  0.9241021639711092  1.0000
  H   H117      1.0  0.9744687329735016  0.9918313028989993  0.10228771285742545  1.0000
  H   H118      1.0  0.025531266957561735  0.008168696818730625  0.8977122872241979  1.0000
  C   C1        1.0  0.19301593343665763  0.1494179186840037  0.11347911840243026  1.0000
  C   C2        1.0  0.8069840666598536  0.8505820818550638  0.8865208810072066  1.0000
  C   C3        1.0  0.900294031192266  0.20302846888869067  0.2732592799836113  1.0000
  C   C4        1.0  0.09970596873879714  0.7969715308290393  0.726740720098012  1.0000
  C   C5        1.0  0.3823182138362704  0.16491142630402805  0.9881074094025726  1.0000
  C   C6        1.0  0.6176817862602406  0.8350885742350393  0.011892590007064257  1.0000
  C   C7        1.0  0.8094826773100157  0.15750895796253556  0.3457785717530679  1.0000
  C   C8        1.0  0.19051732347301906  0.8424910417498452  0.6542214283319364  1.0000
  C   C9        1.0  0.025124384510633924  0.15941687999919993  0.25717694351072595  1.0000
  C   C10       1.0  0.9748756154204292  0.84058311971853  0.7428230565708974  1.0000
  C   C11       1.0  0.8624919003135519  0.28922699957827164  0.22100064555011395  1.0000
  C   C12       1.0  0.1375080996175112  0.7107730001394582  0.7789993545315094  1.0000
  C   C13       1.0  0.8464118495019493  0.07363822967437086  0.40043048168509193  1.0000
  C   C14       1.0  0.15358815042911397  0.9263617700433591  0.5995695183965314  1.0000
  C   C15       1.0  0.9683718743291162  0.03605227450415445  0.384467854929748  1.0000
  C   C16       1.0  0.0316281256019468  0.9639477252135755  0.6155321451518754  1.0000
  C   C17       1.0  0.6846396563794256  0.1977737776731987  0.3604729491847352  1.0000
  C   C18       1.0  0.3153603435516375  0.8022262220445312  0.6395270508968882  1.0000
  C   C19       1.0  0.7405184223060597  0.3284305831141773  0.23881747304391862  1.0000
  C   C20       1.0  0.2594815786424229  0.6715694174195412  0.7611825263690993  1.0000
  C   C21       1.0  0.058043225060424405  0.07931573146060929  0.3128403530262462  1.0000
  C   C22       1.0  0.9419567747387896  0.9206842690513045  0.6871596470496669  1.0000
  C   C23       1.0  0.33293387087443493  0.18849097242659682  0.3477556521500047  1.0000
  C   C24       1.0  0.6670661290566282  0.811509027291133  0.6522443479316187  1.0000
  C   C25       1.0  0.06137232562435666  0.4250825581258283  0.571776869399891  1.0000
  C   C26       1.0  0.9386276746040035  0.5749174416190553  0.42822313001545625  1.0000
  C   C27       1.0  0.15785116581822212  0.397034398758565  0.49077252560974094  1.0000
  C   C28       1.0  0.8421488341128411  0.6029656009591648  0.5092274744718824  1.0000
  C   C29       1.0  0.16123221748172292  0.2995902068180492  0.4524332139699517  1.0000
  C   C30       1.0  0.8387677824493402  0.7004097928996806  0.5475667861116716  1.0000
  C   C31       1.0  0.24494555426356757  0.46762662978020686  0.45215199108304543  1.0000
  C   C32       1.0  0.7550544455356466  0.5323733707317071  0.5478480089928677  1.0000
  C   C33       1.0  0.07507064472757562  0.2327880265937807  0.4933847801023255  1.0000
  C   C34       1.0  0.9249293552034876  0.7672119731239492  0.5066152199792978  1.0000
  C   C35       1.0  0.49374623206674595  0.0999612607292068  0.219696469077839  1.0000
  C   C36       1.0  0.5062537677324681  0.900038739782707  0.7803035309980741  1.0000
  C   C37       1.0  0.23690404831438472  0.5614825676677971  0.49157790971282356  1.0000
  C   C38       1.0  0.7630959516166783  0.4385174320499327  0.5084220903687998  1.0000
  C   C39       1.0  0.9736916958583658  0.35549173920237687  0.6110912441760544  1.0000
  C   C40       1.0  0.02630830407269732  0.6445082605153531  0.388908755905569  1.0000
  C   C41       1.0  0.9810921639427661  0.2607067491167427  0.5730031684659764  1.0000
  C   C42       1.0  0.018907835856447956  0.739293251395171  0.42699683160993673  1.0000
  C   C43       1.0  0.14144673832253  0.5893156024072439  0.5708757296538305  1.0000
  C   C44       1.0  0.8585532624605048  0.41068439730513695  0.4291242704311739  1.0000
  C   C45       1.0  0.5787904593414872  0.14872296821256817  0.13584979564214858  1.0000
  C   C46       1.0  0.4212095405895759  0.8512770315051618  0.8641502044394748  1.0000
  C   C47       1.0  0.05579952611435433  0.52245436939894  0.6103496500100142  1.0000
  C   C48       1.0  0.9442004738167089  0.47754563031878994  0.38965035007160925  1.0000
  C   C49       1.0  0.5199695559277783  0.5135317257691153  0.13349712372632278  1.0000
  C   C50       1.0  0.4800304438714359  0.48646827474279847  0.8665028763495902  1.0000
  C   C51       1.0  0.3919247037166234  0.652844632162812  0.2354711686216197  1.0000
  C   C52       1.0  0.6080752962144398  0.34715536755491794  0.7645288314600037  1.0000
  C   C53       1.0  0.6236241365673629  0.36194566132436906  0.04035909919050808  1.0000
  C   C54       1.0  0.37637586408382256  0.6380543391821958  0.9596409008887862  1.0000
  C   C55       1.0  0.4239335119757156  0.7625936258302232  0.34257549969087414  1.0000
  C   C56       1.0  0.5760664878234986  0.2374063746816906  0.657424500385039  1.0000
  C   C57       1.0  0.44853707924235525  0.6627944255354472  0.30073412714276004  1.0000
  C   C58       1.0  0.5514629205568589  0.3372055749764667  0.699265872933153  1.0000
  C   C59       1.0  0.3091885161226093  0.7353128035921109  0.21858220013547813  1.0000
  C   C60       1.0  0.6908114845285763  0.2646871969144538  0.7814177999438161  1.0000
  C   C61       1.0  0.28573792730870134  0.8332864772103757  0.259816634903781  1.0000
  C   C62       1.0  0.7142620727878097  0.16671352332869177  0.740183364505856  1.0000
  C   C63       1.0  0.5223758444949859  0.5771360054071125  0.32909315725957633  1.0000
  C   C64       1.0  0.47762415543607734  0.42286399431061733  0.670906842822047  1.0000
  C   C65       1.0  0.3438073028735943  0.8475736049988705  0.3195292732360228  1.0000
  C   C66       1.0  0.6561926969256199  0.15242639551304343  0.6804707268398902  1.0000
  C   C67       1.0  0.568800536109016  0.5884469754215904  0.3963736586889355  1.0000
  C   C68       1.0  0.43119946411934407  0.4115530243232932  0.6036263407264117  1.0000
  C   C69       1.0  0.4772576510768334  0.772834613361357  0.4090335331235318  1.0000
  C   C70       1.0  0.5227423488542299  0.22716538635637298  0.5909664669580915  1.0000
  C   C71       1.0  0.5465144319858344  0.6872466208339628  0.436543233834268  1.0000
  C   C72       1.0  0.4534855679452287  0.3127533788837671  0.5634567662473554  1.0000
  C   C73       1.0  0.5903152850151564  0.2683069928125046  0.005729909136238136  1.0000
  C   C74       1.0  0.4096847157678783  0.7316930068998764  0.9942700909487663  1.0000
  C   C75       1.0  0.6508630622240572  0.2816562823941386  0.30852935396158265  1.0000
  C   C76       1.0  0.34913693770700605  0.7183437173235911  0.6914706461200407  1.0000
  C   C77       1.0  0.48007563580585655  0.1205703828502829  0.030617720102288793  1.0000
  C   C78       1.0  0.5199243641252067  0.879429616867447  0.9693822799793347  1.0000
  C   C79       1.0  0.017326362924621985  0.7763072040740863  0.10768829509998358  1.0000
  C   C80       1.0  0.9826736368745923  0.2236927964378276  0.8923117049759296  1.0000
  C   C81       1.0  0.031026324234339167  0.7609165848408592  0.011466641623207619  1.0000
  C   C82       1.0  0.9689736755648748  0.2390834156710545  0.9885333584527054  1.0000
  C   C83       1.0  0.859687826745517  0.6095044028969465  0.21586799966720766  1.0000
  C   C84       1.0  0.14031217335099397  0.3904955976421209  0.7841319997424293  1.0000
  C   C85       1.0  0.813343083818186  0.7138540210146743  0.17715405654403227  1.0000
  C   C86       1.0  0.18665691611287727  0.2861459787030555  0.8228459435375911  1.0000
  C   C87       1.0  0.7761336633144211  0.8406864398419931  0.33255193129779  1.0000
  C   C88       1.0  0.22386633661664215  0.15931355987573684  0.6674480687838333  1.0000
  C   C89       1.0  0.8960386697088989  0.8277347799201009  0.2580732170272809  1.0000
  C   C90       1.0  0.10396133022216442  0.1722652197976291  0.7419267830543426  1.0000
  C   C91       1.0  0.8218006551468554  0.9002016630950699  0.13153788416986523  1.0000
  C   C92       1.0  0.17819934478420774  0.09979833662266015  0.8684621159117583  1.0000
  C   C93       1.0  0.8743877985793795  0.0024641848315299845  0.12508895204710302  1.0000
  C   C94       1.0  0.12561220135168372  0.9975358148862  0.8749110480345205  1.0000
  N   N1        1.0  0.515397858792019  0.20057305732771272  0.07422113955487337  1.0000
  N   N2        1.0  0.4846021411390441  0.7994269423900171  0.9257788605267501  1.0000
  N   N3        1.0  0.2699145313060913  0.21006236583736165  0.053379428891863166  1.0000
  N   N4        1.0  0.7300854684931227  0.789937634674552  0.94662057118405  1.0000
  N   N5        1.0  0.11520898096744696  0.2024461969985641  0.18502334909205947  1.0000
  N   N6        1.0  0.8847910189636161  0.7975538027191659  0.814976650989564  1.0000
  N   N7        1.0  0.5166001447073552  0.4210641726372175  0.10022063938226693  1.0000
  N   N8        1.0  0.483399855389156  0.5789358279018499  0.89977936002737  1.0000
  N   N9        1.0  0.4120243307280698  0.5563230482494192  0.19212359524558625  1.0000
  N   N10       1.0  0.5879756692029934  0.44367695146831065  0.8078764048360372  1.0000
  N   N11       1.0  0.24825484715008153  0.2768963562658334  0.36785163308833185  1.0000
  N   N12       1.0  0.7517451526491324  0.7231036442460804  0.6321483669875813  1.0000
  N   N13       1.0  0.38972554558433525  0.17799733843880342  0.2591384669949724  1.0000
  N   N14       1.0  0.6102744551986996  0.8220026612735774  0.7408615330900321  1.0000
  N   N15       1.0  0.8872032766080568  0.8042391866591745  0.1687069732075113  1.0000
  N   N16       1.0  0.11279672332300641  0.1957608130585554  0.8312930268741121  1.0000
  O   O1        1.0  0.04247583375458991  0.4793189776481022  0.01519567029952592  1.0000
  O   O2        1.0  0.9575241660446241  0.5206810228638116  0.9848043297763872  1.0000
  S   S1        1.0  0.6491344366551042  0.5699225797158749  0.10258720565338528  1.0000
  S   S2        1.0  0.3508655632759591  0.43007742000185495  0.8974127944282381  1.0000
  S   S3        1.0  0.1935083295068682  0.02019946021690393  0.09708103574846423  1.0000
  S   S4        1.0  0.8064916704241949  0.979800539500826  0.9029189643331592  1.0000
  S   S5        1.0  0.3678105038480471  0.10181074307050139  0.42548082243971386  1.0000
  S   S6        1.0  0.632189496380313  0.8981892566743822  0.5745191769756334  1.0000
  Cl  Cl1       1.0  0.2171708027452807  0.4147477136884622  0.19008850885228015  1.0000
  Cl  Cl2       1.0  0.7828291971857826  0.5852522860292677  0.8099114912293432  1.0000
