data_image0
_chemical_formula_structural       H40C80N8F12I12
_chemical_formula_sum              "H40 C80 N8 F12 I12"
_cell_length_a       31.166751421381807
_cell_length_b       9.18783842060913
_cell_length_c       7.354369789312459
_cell_angle_alpha    90.0
_cell_angle_beta     101.2230148652442
_cell_angle_gamma    90.0

_space_group_name_H-M_alt    "P 1"
_space_group_IT_number       1

loop_
  _space_group_symop_operation_xyz
  'x, y, z'

loop_
  _atom_site_type_symbol
  _atom_site_label
  _atom_site_symmetry_multiplicity
  _atom_site_fract_x
  _atom_site_fract_y
  _atom_site_fract_z
  _atom_site_occupancy
  H   H1        1.0  0.8361403660333496  0.969946614430032  0.5314527846680784  1.0000
  H   H2        1.0  0.16385963382953225  0.969946614430032  0.9685472160243056  1.0000
  H   H3        1.0  0.3361403661970414  0.46994661446318087  0.5314527848260334  1.0000
  H   H4        1.0  0.6638596339869292  0.46994661446318087  0.9685472158714912  1.0000
  H   H5        1.0  0.16385963389396485  0.030053385503670354  0.46854721615199957  1.0000
  H   H6        1.0  0.8361403660977822  0.030053385503670354  0.03145278479577231  1.0000
  H   H7        1.0  0.6638596340513617  0.5300533854705216  0.46854721599918514  1.0000
  H   H8        1.0  0.33614036594038543  0.5300533854705216  0.0314527849485868  1.0000
  H   H9        1.0  0.7228484477662903  0.2432588197226724  0.6176010560123518  1.0000
  H   H10       1.0  0.2771515524176801  0.2432588197226724  0.8823989446851729  1.0000
  H   H11       1.0  0.2228484476088936  0.7432588196895237  0.6176010561651663  1.0000
  H   H12       1.0  0.7771515522539882  0.7432588196895237  0.8823989445272178  1.0000
  H   H13       1.0  0.27715155216102405  0.7567411802110301  0.3823989448077262  1.0000
  H   H14       1.0  0.7228484478307231  0.7567411802110301  0.11760105614004566  1.0000
  H   H15       1.0  0.7771515523184208  0.2567411802441788  0.38239894465491175  1.0000
  H   H16       1.0  0.2228484476733262  0.2567411802441788  0.11760105629286016  1.0000
  H   H17       1.0  0.6462480825607745  0.25684997297150386  0.6705378438907265  1.0000
  H   H18       1.0  0.3537519172396328  0.25684997297150386  0.8294621554154223  1.0000
  H   H19       1.0  0.14624808272446632  0.7568499729383551  0.6705378440486816  1.0000
  H   H20       1.0  0.8537519173970296  0.7568499729383551  0.8294621552626078  1.0000
  H   H21       1.0  0.35375191730406536  0.7431500269621986  0.3294621555431162  1.0000
  H   H22       1.0  0.646248082625207  0.7431500269621986  0.17053784401842034  1.0000
  H   H23       1.0  0.8537519174614622  0.24315002699534738  0.32946215539030166  1.0000
  H   H24       1.0  0.1462480827888989  0.24315002699534738  0.1705378441763754  1.0000
  H   H25       1.0  0.6051750429767971  0.02570893600720722  0.6944037692433549  1.0000
  H   H26       1.0  0.3948249568236101  0.02570893600720722  0.8055962300627938  1.0000
  H   H27       1.0  0.10517504314048895  0.5257089359740584  0.6944037694013099  1.0000
  H   H28       1.0  0.894824956981007  0.5257089359740584  0.8055962299099793  1.0000
  H   H29       1.0  0.3948249568880427  0.9742910639264952  0.3055962301904877  1.0000
  H   H30       1.0  0.6051750430412296  0.9742910639264952  0.1944037693710488  1.0000
  H   H31       1.0  0.8948249570454394  0.47429106395964404  0.3055962300376732  1.0000
  H   H32       1.0  0.10517504320492152  0.47429106395964404  0.19440376952900387  1.0000
  H   H33       1.0  0.7107381319157567  0.7739600420104642  0.6183457839775546  1.0000
  H   H34       1.0  0.2892618678846504  0.7739600420104642  0.8816542153285941  1.0000
  H   H35       1.0  0.2107381320794487  0.27396004204361296  0.6183457841355097  1.0000
  H   H36       1.0  0.7892618680420472  0.27396004204361296  0.8816542151757797  1.0000
  H   H37       1.0  0.28926186794908304  0.22603995792323828  0.381654215456288  1.0000
  H   H38       1.0  0.7107381319801895  0.22603995792323828  0.11834578410524849  1.0000
  H   H39       1.0  0.7892618681064798  0.7260399578900896  0.38165421530347354  1.0000
  H   H40       1.0  0.21073813214388126  0.7260399578900896  0.11834578426320352  1.0000
  C   C1        1.0  0.803490198149948  0.9796945840720649  0.5558516723941338  1.0000
  C   C2        1.0  0.1965098017129338  0.9796945840720649  0.9441483282982503  1.0000
  C   C3        1.0  0.3034901982511653  0.4796945841052136  0.5558516711658537  1.0000
  C   C4        1.0  0.6965098018703305  0.4796945841052136  0.9441483281454358  1.0000
  C   C5        1.0  0.19650980177736643  0.0203054158616376  0.44414832842594415  1.0000
  C   C6        1.0  0.803490198151906  0.0203054158616376  0.055851671135592425  1.0000
  C   C7        1.0  0.6965098019347632  0.5203054158284888  0.4441483282731296  1.0000
  C   C8        1.0  0.3034901983155978  0.5203054158284888  0.05585167129354749  1.0000
  C   C9        1.0  0.7664932869759383  0.9917539744234958  0.5836041017755428  1.0000
  C   C10       1.0  0.2335067128244689  0.9917539744234958  0.9163958975306059  1.0000
  C   C11       1.0  0.2664932871396302  0.49175397445664454  0.5836041019334979  1.0000
  C   C12       1.0  0.7335067129818658  0.49175397445664454  0.9163958973777915  1.0000
  C   C13       1.0  0.23350671288890149  0.008246025510206687  0.4163958976582998  1.0000
  C   C14       1.0  0.7664932870403709  0.008246025510206687  0.08360410190323671  1.0000
  C   C15       1.0  0.7335067130462983  0.508246025477058  0.41639589750548534  1.0000
  C   C16       1.0  0.26649328720406273  0.508246025477058  0.08360410206119175  1.0000
  C   C17       1.0  0.7231833399578026  0.006717621400650196  0.6145857322218241  1.0000
  C   C18       1.0  0.2768166601636933  0.006717621400650196  0.8854142670894652  1.0000
  C   C19       1.0  0.22318333980040578  0.5067176213675014  0.6145857323746386  1.0000
  C   C20       1.0  0.7768166600000016  0.5067176213675014  0.88541426693151  1.0000
  C   C21       1.0  0.2768166602281259  0.9932823785330522  0.3854142672171591  1.0000
  C   C22       1.0  0.7231833400222352  0.9932823785330522  0.11458573234951802  1.0000
  C   C23       1.0  0.7768166600644341  0.493282378566201  0.385414267059204  1.0000
  C   C24       1.0  0.22318333986483838  0.493282378566201  0.1145857325023325  1.0000
  C   C25       1.0  0.7043691628290508  0.1442565867317602  0.6297800633565898  1.0000
  C   C26       1.0  0.29563083703383103  0.1442565867317602  0.8702199373357943  1.0000
  C   C27       1.0  0.20436916299274271  0.6442565866986114  0.6297800635145447  1.0000
  C   C28       1.0  0.7956308371912278  0.6442565866986114  0.8702199371829797  1.0000
  C   C29       1.0  0.29563083709826354  0.8557434132019421  0.37021993746348825  1.0000
  C   C30       1.0  0.7043691628934834  0.8557434132019421  0.12978006348428361  1.0000
  C   C31       1.0  0.7956308369345718  0.355743413235091  0.3702199373055332  1.0000
  C   C32       1.0  0.20436916305717528  0.355743413235091  0.12978006364223868  1.0000
  C   C33       1.0  0.6617359406513732  0.15218068233151427  0.6588403757148983  1.0000
  C   C34       1.0  0.33826405947012267  0.15218068233151427  0.8411596235963911  1.0000
  C   C35       1.0  0.1617359404939764  0.6521806822983656  0.6588403758677128  1.0000
  C   C36       1.0  0.8382640593064309  0.6521806822983656  0.841159623438436  1.0000
  C   C37       1.0  0.33826405953455524  0.8478193176021882  0.3411596237240849  1.0000
  C   C38       1.0  0.6617359403947172  0.8478193176021882  0.15884037583745161  1.0000
  C   C39       1.0  0.8382640593708635  0.3478193176353369  0.3411596235661299  1.0000
  C   C40       1.0  0.16173594055840898  0.3478193176353369  0.15884037599540668  1.0000
  C   C41       1.0  0.6388391480087662  0.023443840666248855  0.6723241607230784  1.0000
  C   C42       1.0  0.36116085179164115  0.023443840666248855  0.8276758385830704  1.0000
  C   C43       1.0  0.13883914817245793  0.5234438406331001  0.6723241608810333  1.0000
  C   C44       1.0  0.8611608520115126  0.5234438406331001  0.8276758398164913  1.0000
  C   C45       1.0  0.3611608518560738  0.9765561592674535  0.3276758387107643  1.0000
  C   C46       1.0  0.6388391480731987  0.9765561592674535  0.17232416085077223  1.0000
  C   C47       1.0  0.8611608516923819  0.47655615930060236  0.32767583855280924  1.0000
  C   C48       1.0  0.13883914823689048  0.47655615930060236  0.1723241610087273  1.0000
  C   C49       1.0  0.6974821892024583  0.8827692857339428  0.6306717143484653  1.0000
  C   C50       1.0  0.302517810597949  0.8827692857339428  0.8693282849576834  1.0000
  C   C51       1.0  0.19748218936615006  0.38276928576709157  0.6306717145064203  1.0000
  C   C52       1.0  0.8025178107553458  0.38276928576709157  0.8693282848048689  1.0000
  C   C53       1.0  0.3025178106623816  0.11723071419975963  0.36932828508537735  1.0000
  C   C54       1.0  0.6974821892668909  0.11723071419975963  0.13067171447615916  1.0000
  C   C55       1.0  0.8025178104986899  0.6172307141666109  0.3693282849274223  1.0000
  C   C56       1.0  0.19748218943058263  0.6172307141666109  0.13067171463411423  1.0000
  C   C57       1.0  0.500000000060748  0.3297546845408211  0.7499999996556447  1.0000
  C   C58       1.0  0.9999999999033511  0.8297546845076723  0.7499999998084592  1.0000
  C   C59       1.0  0.5000000001251805  0.6702453153928813  0.24999999978333853  1.0000
  C   C60       1.0  0.9999999999677837  0.17024531542603014  0.24999999993615302  1.0000
  C   C61       1.0  0.5365145329734358  0.40864275231247293  0.7219514664645131  1.0000
  C   C62       1.0  0.46348546721053485  0.40864275231247293  0.7780485342330115  1.0000
  C   C63       1.0  0.03651453281603893  0.9086427533677195  0.7219514666173277  1.0000
  C   C64       1.0  0.963485467046843  0.9086427533677195  0.7780485340750564  1.0000
  C   C65       1.0  0.46348546727496737  0.5913572476212295  0.27804853436070537  1.0000
  C   C66       1.0  0.5365145330378683  0.5913572476212295  0.2219514665922071  1.0000
  C   C67       1.0  0.9634854671112756  0.09135724765437826  0.27804853420275033  1.0000
  C   C68       1.0  0.03651453288047152  0.09135724765437826  0.2219514667450216  1.0000
  C   C69       1.0  0.5378692660943771  0.5602412454766199  0.7245339579958064  1.0000
  C   C70       1.0  0.46213073402711874  0.5602412454766199  0.775466041315483  1.0000
  C   C71       1.0  0.037869265936980326  0.06024124550976868  0.7245339581486209  1.0000
  C   C72       1.0  0.9621307339259016  0.06024124550976868  0.7754660425437633  1.0000
  C   C73       1.0  0.46213073409155137  0.43975875445708257  0.2754660414431769  1.0000
  C   C74       1.0  0.5378692661588097  0.43975875445708257  0.22453395812350024  1.0000
  C   C75       1.0  0.9621307339278595  0.9397587544239338  0.2754660412852218  1.0000
  C   C76       1.0  0.0378692660014129  0.9397587544239338  0.22453395827631473  1.0000
  C   C77       1.0  0.500000000060748  0.6316550361815395  0.7499999996556447  1.0000
  C   C78       1.0  0.9999999999033511  0.13165503621468833  0.7499999998084592  1.0000
  C   C79       1.0  0.5000000001251805  0.3683449637521629  0.24999999978333853  1.0000
  C   C80       1.0  0.9999999999677837  0.868344963719014  0.24999999993615302  1.0000
  N   N1        1.0  0.6564809507662028  0.8913377962361965  0.6590477947803901  1.0000
  N   N2        1.0  0.3435190493552931  0.8913377962361965  0.8409522045308991  1.0000
  N   N3        1.0  0.156480950608806  0.39133779626934534  0.6590477949332046  1.0000
  N   N4        1.0  0.8435190492540758  0.39133779626934534  0.8409522057591794  1.0000
  N   N5        1.0  0.34351904941972566  0.10866220369750586  0.34095220465859305  1.0000
  N   N6        1.0  0.6564809505095467  0.10866220369750586  0.1590477949029435  1.0000
  N   N7        1.0  0.8435190493185085  0.6086622036643571  0.34095220588687336  1.0000
  N   N8        1.0  0.1564809506732386  0.6086622036643571  0.15904779506089856  1.0000
  F   F1        1.0  0.5720479916503796  0.33431449916555656  0.6907581880187266  1.0000
  F   F2        1.0  0.42795200847111636  0.33431449916555656  0.8092418112925629  1.0000
  F   F3        1.0  0.07204799149298277  0.8343144991324078  0.6907581881715409  1.0000
  F   F4        1.0  0.9279520083074245  0.8343144991324078  0.8092418111346078  1.0000
  F   F5        1.0  0.4279520085355489  0.6656855007681459  0.3092418114202567  1.0000
  F   F6        1.0  0.572047991714812  0.6656855007681459  0.19075818814642037  1.0000
  F   F7        1.0  0.9279520083718571  0.16568550080129463  0.30924181126230166  1.0000
  F   F8        1.0  0.07204799155741534  0.16568550080129463  0.19075818829923488  1.0000
  F   F9        1.0  0.500000000060748  0.7797086019635351  0.7499999996556447  1.0000
  F   F10       1.0  0.9999999999033511  0.2797086019966839  0.7499999998084592  1.0000
  F   F11       1.0  0.5000000001251805  0.22029139797016734  0.24999999978333853  1.0000
  F   F12       1.0  0.9999999999677837  0.7202913979370186  0.24999999993615302  1.0000
  I   I1        1.0  0.500000000060748  0.10337949869355978  0.7499999996556447  1.0000
  I   I2        1.0  0.9999999999033511  0.6033794986604111  0.7499999998084592  1.0000
  I   I3        1.0  0.5000000001251805  0.896620502328538  0.24999999978333853  1.0000
  I   I4        1.0  0.9999999999677837  0.39662050127329146  0.24999999993615302  1.0000
  I   I5        1.0  0.5936994501419159  0.682150277691157  0.6955365899407921  1.0000
  I   I6        1.0  0.4063005500420545  0.682150277691157  0.8044634107567324  1.0000
  I   I7        1.0  0.0936994499845192  0.18215027772430575  0.6955365900936067  1.0000
  I   I8        1.0  0.9063005498783627  0.18215027772430575  0.8044634105987774  1.0000
  I   I9        1.0  0.4063005497229238  0.3178497222425455  0.3044634094930504  1.0000
  I   I10       1.0  0.5936994502063485  0.3178497222425455  0.1955365900684861  1.0000
  I   I11       1.0  0.9063005499427953  0.8178497222093967  0.3044634107264713  1.0000
  I   I12       1.0  0.09369945004895179  0.8178497222093967  0.19553659022130057  1.0000
