data_image0
_chemical_formula_structural       H10C20N2F4I2
_chemical_formula_sum              "H10 C20 N2 F4 I2"
_cell_length_a       4.31253954375461
_cell_length_b       8.624635646244927
_cell_length_c       13.719438245597551
_cell_angle_alpha    90.26002674350077
_cell_angle_beta     96.2412531307482
_cell_angle_gamma    104.23386612963691

_space_group_name_H-M_alt    "P 1"
_space_group_IT_number       1

loop_
  _space_group_symop_operation_xyz
  'x, y, z'

loop_
  _atom_site_type_symbol
  _atom_site_label
  _atom_site_symmetry_multiplicity
  _atom_site_fract_x
  _atom_site_fract_y
  _atom_site_fract_z
  _atom_site_occupancy
  H   H1        1.0  0.7512937021423883  0.5097783062203233  0.39641503189198385  1.0000
  H   H2        1.0  0.24870629760540264  0.49022169323849246  0.6035849677984935  1.0000
  H   H3        1.0  0.15973994985184223  0.8906981347948025  0.25470533883081076  1.0000
  H   H4        1.0  0.8402600501823678  0.10930186470327187  0.7452946615932795  1.0000
  H   H5        1.0  0.18981021102485562  0.6431977999978368  0.16332836137947354  1.0000
  H   H6        1.0  0.8101897890093542  0.35680219950023767  0.8366716390446165  1.0000
  H   H7        1.0  0.44642403371813616  0.9488253114762928  0.42411208593742944  1.0000
  H   H8        1.0  0.5535759660296549  0.051174687982523004  0.5758879137530477  1.0000
  H   H9        1.0  0.06111158573229403  0.7945967611818349  0.6753583605505159  1.0000
  H   H10       1.0  0.9388884143019157  0.2054032383162395  0.32464163987357414  1.0000
  C   C1        1.0  0.6582122379569965  0.015566916054662424  0.09315546589247407  1.0000
  C   C2        1.0  0.34178776179079456  0.9844330834041534  0.9068445337980031  1.0000
  C   C3        1.0  0.3456518705545749  0.115415642088314  0.9671676404915729  1.0000
  C   C4        1.0  0.6543481294796349  0.8845843574097604  0.03283235993251718  1.0000
  C   C5        1.0  0.5049121433022575  0.13409442944765204  0.062050948338915446  1.0000
  C   C6        1.0  0.4950878567319523  0.8659055700504223  0.9379490520851748  1.0000
  C   C7        1.0  0.6231544850226404  0.597381352180869  0.3676023532799728  1.0000
  C   C8        1.0  0.37684551501156965  0.40261864731720565  0.6323976471441173  1.0000
  C   C9        1.0  0.6221773604073334  0.7333789190899195  0.42494023965803945  1.0000
  C   C10       1.0  0.37782264021154327  0.26662108160433223  0.5750597607657993  1.0000
  C   C11       1.0  0.2942251582231764  0.8099409184735107  0.28877903477743294  1.0000
  C   C12       1.0  0.7057748421092815  0.19005908218148249  0.711220964912793  1.0000
  C   C13       1.0  0.31019513839809426  0.6726636268758609  0.23760263526639125  1.0000
  C   C14       1.0  0.6898048616361157  0.3273363726222135  0.762397365157699  1.0000
  C   C15       1.0  0.4529743172431701  0.841526653879964  0.3831121810522168  1.0000
  C   C16       1.0  0.5470256827910398  0.15847334561811033  0.6168878193718732  1.0000
  C   C17       1.0  0.790846137748717  0.7591296201888905  0.520717582517545  1.0000
  C   C18       1.0  0.2091538625837408  0.24087038046610265  0.4792824171726809  1.0000
  C   C19       1.0  0.936261277554492  0.7793671805031713  0.6025699454260702  1.0000
  C   C20       1.0  0.06373872219329894  0.2206328189556445  0.3974300542644069  1.0000
  N   N1        1.0  0.47280458823553934  0.5693424671002176  0.27655488856943095  1.0000
  N   N2        1.0  0.5271954123833373  0.4306575335940342  0.7234451118544079  1.0000
  F   F1        1.0  0.8175415673853098  0.026001859464811077  0.1852628979702822  1.0000
  F   F2        1.0  0.1824584326489001  0.9739981400332633  0.8147371024538079  1.0000
  F   F3        1.0  0.1874057177205543  0.22526065465542286  0.931840921890362  1.0000
  F   F4        1.0  0.8125942828983225  0.7747393460388289  0.0681590785334766  1.0000
  I   I1        1.0  0.5022293180453712  0.3291713495359752  0.15684771150766483  1.0000
  I   I2        1.0  0.4977706822870867  0.670828651119018  0.843152288182561  1.0000
