data_image0
_chemical_formula_structural       H20C46N4F12I6
_chemical_formula_sum              "H20 C46 N4 F12 I6"
_cell_length_a       7.719382021722328
_cell_length_b       13.256197763002145
_cell_length_c       13.270368403264532
_cell_angle_alpha    112.40767088975245
_cell_angle_beta     100.19124822549766
_cell_angle_gamma    96.93343389190794

_space_group_name_H-M_alt    "P 1"
_space_group_IT_number       1

loop_
  _space_group_symop_operation_xyz
  'x, y, z'

loop_
  _atom_site_type_symbol
  _atom_site_label
  _atom_site_symmetry_multiplicity
  _atom_site_fract_x
  _atom_site_fract_y
  _atom_site_fract_z
  _atom_site_occupancy
  H   H1        1.0  0.2746933648484007  0.304735763741511  0.7207933533432341  1.0000
  H   H2        1.0  0.7253066359147053  0.6952642359108182  0.2792066467885851  1.0000
  H   H3        1.0  0.3461627892310222  0.36512969539229245  0.07950342750439919  1.0000
  H   H4        1.0  0.6538372103836958  0.634870305013863  0.9204965726245891  1.0000
  H   H5        1.0  0.25255051382294874  0.6505332816630119  0.31744216673992814  1.0000
  H   H6        1.0  0.7474494853179885  0.3494667176388094  0.682557832550429  1.0000
  H   H7        1.0  0.17023882088902137  0.7276569034969355  0.17624789975319288  1.0000
  H   H8        1.0  0.8297611798740845  0.2723430961553937  0.8237521003786263  1.0000
  H   H9        1.0  0.0714319833703081  0.556402116201086  0.8712469993443879  1.0000
  H   H10       1.0  0.9285680160959034  0.44359788344583684  0.12875300078624247  1.0000
  H   H11       1.0  0.1252045401730839  0.7334494854457436  0.8740002947393157  1.0000
  H   H12       1.0  0.8747954594416342  0.26655051496041177  0.12599970538967237  1.0000
  H   H13       1.0  0.17926316277742002  0.9366777003665403  0.9808691657974902  1.0000
  H   H14       1.0  0.8207368378089179  0.06332229969991975  0.019130833492413707  1.0000
  H   H15       1.0  0.3943000733739893  0.10830543624835905  0.12313075213186388  1.0000
  H   H16       1.0  0.6056999262407285  0.8916945641577962  0.8768692479971242  1.0000
  H   H17       1.0  0.7039040893439928  0.9252225763223959  0.2430942647296777  1.0000
  H   H18       1.0  0.29609590994545065  0.07477742373865774  0.7569057345590372  1.0000
  H   H19       1.0  0.5072327882145523  0.7463164040099096  0.10508956241045252  1.0000
  H   H20       1.0  0.4927672122232792  0.2536835952973179  0.8949104368810936  1.0000
  C   C1        1.0  0.2707343087772888  0.35474953852724556  0.805109005560283  1.0000
  C   C2        1.0  0.7292656908374291  0.6452504618789097  0.19489099456870512  1.0000
  C   C3        1.0  0.2674086506000076  0.41293162803738964  0.9006120876668986  1.0000
  C   C4        1.0  0.7325913490147103  0.5870683723687657  0.09938791246208954  1.0000
  C   C5        1.0  0.2630169936153503  0.4813735420538221  0.011777280220610678  1.0000
  C   C6        1.0  0.7369830058508613  0.5186264575931009  0.9882227199100198  1.0000
  C   C7        1.0  0.3077824479689788  0.4457303248885524  0.09821481005734455  1.0000
  C   C8        1.0  0.6922175513204648  0.5542696751725013  0.9017851892313705  1.0000
  C   C9        1.0  0.2564406906640577  0.6044339413687589  0.23027668555779357  1.0000
  C   C10       1.0  0.7435593102475547  0.39556605904280284  0.7697233145723836  1.0000
  C   C11       1.0  0.21150738314174486  0.6477056722851117  0.15102823742613203  1.0000
  C   C12       1.0  0.7884926177698673  0.35229432812644995  0.8489717627040451  1.0000
  C   C13       1.0  0.21374977872163073  0.5866551444922242  0.03877952151017928  1.0000
  C   C14       1.0  0.7862502208930873  0.41334485591393116  0.9612204786188088  1.0000
  C   C15       1.0  0.15631625059737436  0.6226359668578523  0.9489462839772026  1.0000
  C   C16       1.0  0.843683750314238  0.37736403355370934  0.05105371615297447  1.0000
  C   C17       1.0  0.1941302742375898  0.7245255478773416  0.9485131280234727  1.0000
  C   C18       1.0  0.8058697253771282  0.2754744525288137  0.05148687210551544  1.0000
  C   C19       1.0  0.31948752072133235  0.825278140805367  0.03279285940472375  1.0000
  C   C20       1.0  0.6805124788933855  0.1747218596007883  0.9672071407242644  1.0000
  C   C21       1.0  0.2929574255586277  0.9300195270433335  0.037959112661311606  1.0000
  C   C22       1.0  0.7070425739075838  0.06998047260358933  0.9620408874693187  1.0000
  C   C23       1.0  0.41272455387993356  0.026001422598104496  0.11722563775888442  1.0000
  C   C24       1.0  0.5872754468831725  0.9739985770542249  0.8827743623729349  1.0000
  C   C25       1.0  0.585371608926903  0.92439926781619  0.18394356711430307  1.0000
  C   C26       1.0  0.41462839068781504  0.07560073258996541  0.8160564330146851  1.0000
  C   C27       1.0  0.4731997654233867  0.8242141918988011  0.10708836366078078  1.0000
  C   C28       1.0  0.5268002340428248  0.17578580774812186  0.8929116364698496  1.0000
  C   C29       1.0  0.2539840979302466  0.22617595870920446  0.35483868413425834  1.0000
  C   C30       1.0  0.746015901535965  0.7738240409377185  0.645161315996372  1.0000
  C   C31       1.0  0.15492825424507337  0.12000952779949853  0.28132115128083024  1.0000
  C   C32       1.0  0.8450717465180326  0.8799904718528307  0.7186788488509891  1.0000
  C   C33       1.0  0.14257515088595418  0.03106188498971654  0.31310579294443686  1.0000
  C   C34       1.0  0.8574248500256583  0.9689381154218453  0.6868942071857402  1.0000
  C   C35       1.0  0.2263796213566975  0.04618934945331004  0.42150746979949183  1.0000
  C   C36       1.0  0.7736203782580204  0.9538106509528452  0.5784925303294962  1.0000
  C   C37       1.0  0.32126024774497863  0.15302428053149972  0.49623269021749705  1.0000
  C   C38       1.0  0.6787397518697393  0.8469757198746557  0.5037673099114911  1.0000
  C   C39       1.0  0.3364552621621453  0.2408397225881923  0.4631274807732093  1.0000
  C   C40       1.0  0.6635447371272982  0.7591602774728614  0.5368725185155057  1.0000
  C   C41       1.0  0.8910852149340845  0.3918014306113696  0.4359750360485924  1.0000
  C   C42       1.0  0.10891478565225339  0.6081985694550903  0.5640249632413115  1.0000
  C   C43       1.0  0.013629877397159873  0.4168314984967584  0.5369164874105868  1.0000
  C   C44       1.0  0.9863701222175582  0.583168501909397  0.46308351271840126  1.0000
  C   C45       1.0  0.12146427537490202  0.5226890907849666  0.5998643611915085  1.0000
  C   C46       1.0  0.8785357240913096  0.47731090886195643  0.40013563893912185  1.0000
  N   N1        1.0  0.30364934439683466  0.504798884110355  0.20435433317847804  1.0000
  N   N2        1.0  0.6963506561895033  0.49520111595610516  0.7956456661114258  1.0000
  N   N3        1.0  0.5555401931582464  0.02416961891370788  0.1901844611693142  1.0000
  N   N4        1.0  0.44445980645647154  0.9758303814924475  0.809815538959674  1.0000
  F   F1        1.0  0.06744634294168939  0.10095070467366525  0.17537164670957536  1.0000
  F   F2        1.0  0.9325536566730287  0.8990492957324902  0.8246283534194128  1.0000
  F   F3        1.0  0.045795258997682664  0.9293886637426632  0.23729143787337859  1.0000
  F   F4        1.0  0.954204740468529  0.07061133590425965  0.7627085622572517  1.0000
  F   F5        1.0  0.39927370616067104  0.17359426335387987  0.604289800748008  1.0000
  F   F6        1.0  0.6007262933055406  0.8264057362930431  0.3957101993826224  1.0000
  F   F7        1.0  0.4328510327850921  0.3420776994535219  0.5394594011400262  1.0000
  F   F8        1.0  0.567148967978014  0.6579223001988075  0.4605405989917931  1.0000
  F   F9        1.0  0.03093525689459211  0.3361635042793466  0.5759207635327385  1.0000
  F   F10       1.0  0.9690647435432395  0.663836495027881  0.4240792357588076  1.0000
  F   F11       1.0  0.23658647446329056  0.5419569370710533  0.6981354117227475  1.0000
  F   F12       1.0  0.7634135251514275  0.4580430633351019  0.3018645884062406  1.0000
  I   I1        1.0  0.284203624949468  0.35884181631953  0.3037907671626032  1.0000
  I   I2        1.0  0.71579637563687  0.64115818374693  0.6962092321273007  1.0000
  I   I3        1.0  0.2083970722316021  0.9172482333154552  0.4755449094908804  1.0000
  I   I4        1.0  0.7916029272346096  0.08275176633146769  0.5244550906397499  1.0000
  I   I5        1.0  0.744572714134291  0.22669602601283126  0.33335309688158377  1.0000
  I   I6        1.0  0.2554272851551527  0.7733039740482225  0.6666469024071313  1.0000
