data_image0
_chemical_formula_structural       H72C68N16O8S4
_chemical_formula_sum              "H72 C68 N16 O8 S4"
_cell_length_a       8.183391934316166
_cell_length_b       10.442375164151498
_cell_length_c       19.727784649238835
_cell_angle_alpha    90.0
_cell_angle_beta     99.34037954233132
_cell_angle_gamma    90.0

_space_group_name_H-M_alt    "P 1"
_space_group_IT_number       1

loop_
  _space_group_symop_operation_xyz
  'x, y, z'

loop_
  _atom_site_type_symbol
  _atom_site_label
  _atom_site_symmetry_multiplicity
  _atom_site_fract_x
  _atom_site_fract_y
  _atom_site_fract_z
  _atom_site_occupancy
  H   H1        1.0  0.5284288839241538  0.1456152327508868  0.2366553334049657  1.0000
  H   H2        1.0  0.47157111618162834  0.6456152325521055  0.26334466641959997  1.0000
  H   H3        1.0  0.4715711155769694  0.8543847668515505  0.7633446662458427  1.0000
  H   H4        1.0  0.5284288847411294  0.35438476705033195  0.7366553337455946  1.0000
  H   H5        1.0  0.6504852972516453  0.024106826851442154  0.28152801529518445  1.0000
  H   H6        1.0  0.3495147018312698  0.5241068276102975  0.2184719850424148  1.0000
  H   H7        1.0  0.34951470244886157  0.9758931727509952  0.7184719848693338  1.0000
  H   H8        1.0  0.6504852978692371  0.4758931729497765  0.7815280151221035  1.0000
  H   H9        1.0  0.6464234039287348  0.3094809398434973  0.17469384700436003  1.0000
  H   H10       1.0  0.3535765963764312  0.809480939644716  0.3253061533339155  1.0000
  H   H11       1.0  0.35357659699402294  0.6905190607165766  0.8253061531608346  1.0000
  H   H12       1.0  0.6464234033240759  0.1905190599577214  0.6746938468306029  1.0000
  H   H13       1.0  0.18144554009188185  0.07525089241168348  0.22524700863013133  1.0000
  H   H14       1.0  0.8185544587916497  0.5752508922129022  0.2747529911937581  1.0000
  H   H15       1.0  0.8185544594092415  0.924749107190754  0.7747529910206772  1.0000
  H   H16       1.0  0.1814455409088573  0.42474910738953525  0.7252470089707602  1.0000
  H   H17       1.0  0.8961574969625052  0.39621244256801097  0.13368195188516913  1.0000
  H   H18       1.0  0.1038425033426607  0.8962124423692297  0.3663180484531064  1.0000
  H   H19       1.0  0.10384250273800176  0.6037875570344263  0.8663180482793492  1.0000
  H   H20       1.0  0.896157497580097  0.10378755723320768  0.6336819517120882  1.0000
  H   H21       1.0  0.022109167365023732  0.38621104840640924  0.02538935851733234  1.0000
  H   H22       1.0  0.9778908327407585  0.8862110491652645  0.4746106413072334  1.0000
  H   H23       1.0  0.9778908323354831  0.613788951196028  0.9746106416471859  1.0000
  H   H24       1.0  0.022109167982615495  0.11378895139480943  0.5253893583442514  1.0000
  H   H25       1.0  0.9353647500780098  0.9907040053028601  0.26738669918403657  1.0000
  H   H26       1.0  0.06463525022715613  0.49070400550164134  0.23261330115423895  1.0000
  H   H27       1.0  0.06463525084474794  0.00929599429957731  0.7326133009811581  1.0000
  H   H28       1.0  0.9353647494733509  0.5092959950584325  0.7673866990102793  1.0000
  H   H29       1.0  0.25923955762557316  0.02912241853213578  0.002490360286689433  1.0000
  H   H30       1.0  0.7407604412579583  0.5291224183333545  0.49750963953719995  1.0000
  H   H31       1.0  0.7407604420749339  0.9708775820279381  0.9975096398778289  1.0000
  H   H32       1.0  0.25923955824316497  0.4708775812690829  0.5024903601136085  1.0000
  H   H33       1.0  0.871305593284623  0.36678069977303046  0.9065079162433486  1.0000
  H   H34       1.0  0.12869440703347598  0.8667807005318857  0.593492083748089  1.0000
  H   H35       1.0  0.1286944076381348  0.633219299829407  0.09349208392184608  1.0000
  H   H36       1.0  0.8713055924676473  0.13321930002818824  0.40650791590271956  1.0000
  H   H37       1.0  0.12249145801869539  0.00756836914568198  0.8887656831529588  1.0000
  H   H38       1.0  0.8775085410771527  0.5075683689469007  0.6112343168378024  1.0000
  H   H39       1.0  0.8775085414824279  0.9924316304567554  0.11123431649784976  1.0000
  H   H40       1.0  0.12249145862335427  0.49243163065553675  0.3887656833267159  1.0000
  H   H41       1.0  0.9232352967731638  0.17638033503363976  0.8337158337230877  1.0000
  H   H42       1.0  0.07676470354493489  0.6763803348348585  0.6662841662683496  1.0000
  H   H43       1.0  0.07676470292734312  0.8236196645687976  0.16628416644143065  1.0000
  H   H44       1.0  0.923235297178439  0.323619664767579  0.33371583338313504  1.0000
  H   H45       1.0  0.6580509230025384  0.18484252381836727  0.06149712217897317  1.0000
  H   H46       1.0  0.3419490773026276  0.684842523619586  0.43850287815930233  1.0000
  H   H47       1.0  0.34194907669796865  0.8151574767417067  0.9385028779855452  1.0000
  H   H48       1.0  0.6580509236201302  0.31515747694048796  0.5614971220058923  1.0000
  H   H49       1.0  0.5005714321697697  0.3774640901173061  0.014685595516177015  1.0000
  H   H50       1.0  0.4994285679360124  0.8774640899185248  0.4853144043083887  1.0000
  H   H51       1.0  0.4994285675307372  0.6225359104427678  0.9853144046483413  1.0000
  H   H52       1.0  0.500571431565111  0.12253590968391259  0.5146855953424199  1.0000
  H   H53       1.0  0.5863173703259246  0.0059890531624164  0.8718755077828715  1.0000
  H   H54       1.0  0.4136826299921742  0.5059890529636352  0.6281244922085659  1.0000
  H   H55       1.0  0.41368262917519877  0.9940109473976575  0.12812449186793706  1.0000
  H   H56       1.0  0.5863173709305834  0.4940109466388023  0.3718755079566286  1.0000
  H   H57       1.0  0.4255911011952924  0.1925985140721977  0.815879042875432  1.0000
  H   H58       1.0  0.5744088991228063  0.6925985138734164  0.6841209571160054  1.0000
  H   H59       1.0  0.5744088985052146  0.8074014864878761  0.18412095728908637  1.0000
  H   H60       1.0  0.4255911016005676  0.30740148668665757  0.3158790425354793  1.0000
  H   H61       1.0  0.4497959171920106  0.4858231312561946  0.8603798033319311  1.0000
  H   H62       1.0  0.5502040819038374  0.9858231320150498  0.63962019665883  1.0000
  H   H63       1.0  0.5502040825084964  0.5141768683462428  0.13962019683258714  1.0000
  H   H64       1.0  0.4497959175972859  0.014176868545024077  0.3603798029919786  1.0000
  H   H65       1.0  0.30601307714630716  0.4708127387414629  0.9182162695069127  1.0000
  H   H66       1.0  0.6939869231717918  0.9708127385426817  0.5817837304845249  1.0000
  H   H67       1.0  0.6939869235770668  0.5291872608609745  0.08178373014457219  1.0000
  H   H68       1.0  0.3060130765287153  0.02918726105975579  0.4182162696799935  1.0000
  H   H69       1.0  0.2660694653765229  0.3940281454477252  0.8365777784895596  1.0000
  H   H70       1.0  0.7339305349415759  0.8940281452489439  0.6634222215018779  1.0000
  H   H71       1.0  0.7339305341246004  0.6059718541547122  0.16342222116124897  1.0000
  H   H72       1.0  0.2660694659811818  0.10597185435349346  0.33657777866331673  1.0000
  C   C1        1.0  0.15646762431540753  0.208160163356535  0.02245757997949764  1.0000
  C   C2        1.0  0.8435323759897584  0.7081601631577538  0.477542420358778  1.0000
  C   C3        1.0  0.8435323766073501  0.7918398372035389  0.9775424201856969  1.0000
  C   C4        1.0  0.15646762371074863  0.2918398364446837  0.5224575798057405  1.0000
  C   C5        1.0  0.9039437682386171  0.3071735155629833  0.1627883502599446  1.0000
  C   C6        1.0  0.09605623186716508  0.807173515364202  0.3372116495646211  1.0000
  C   C7        1.0  0.0960562314618899  0.6928264840394541  0.8372116499045738  1.0000
  C   C8        1.0  0.9039437688562089  0.19282648423823545  0.6627883500868637  1.0000
  C   C9        1.0  0.05549748658329652  0.24253605240066017  0.1774330274589631  1.0000
  C   C10       1.0  0.9445025137218693  0.7425360522018789  0.3225669728793124  1.0000
  C   C11       1.0  0.9445025143394611  0.7574639481594138  0.8225669727062314  1.0000
  C   C12       1.0  0.0554974859786376  0.25746394740055856  0.6774330272852058  1.0000
  C   C13       1.0  0.06496976695030425  0.1278457715810747  0.2150423320081111  1.0000
  C   C14       1.0  0.9350302331554781  0.6278457713822935  0.2849576678164546  1.0000
  C   C15       1.0  0.935030232550819  0.8721542280213627  0.7849576676426974  1.0000
  C   C16       1.0  0.06496976654502903  0.372154228220144  0.7150423323480637  1.0000
  C   C17       1.0  0.772444414211991  0.1441464395157372  0.22428688584871911  1.0000
  C   C18       1.0  0.2275555860931749  0.6441464393169559  0.27571311448955643  1.0000
  C   C19       1.0  0.227555585488516  0.8558535600867002  0.7757131143157993  1.0000
  C   C20       1.0  0.7724444148295827  0.35585356028548154  0.724286885675638  1.0000
  C   C21       1.0  0.09505901041677187  0.09381443633275187  0.9158743279903184  1.0000
  C   C22       1.0  0.9049409899013269  0.5938144361339706  0.5841256720011189  1.0000
  C   C23       1.0  0.9049409892837351  0.9061855632696855  0.08412567217419985  1.0000
  C   C24       1.0  0.09505901082204707  0.4061855634684668  0.4158743276503658  1.0000
  C   C25       1.0  0.0406565037379837  0.30331803351343833  0.9942006914412647  1.0000
  C   C26       1.0  0.9593434965801151  0.803318033314657  0.5057993085501727  1.0000
  C   C27       1.0  0.9593434957631396  0.6966819660889991  0.0057993082095438315  1.0000
  C   C28       1.0  0.04065650312039189  0.19668196628778037  0.4942006916143456  1.0000
  C   C29       1.0  0.7644092710710004  0.2593278518948941  0.18588492319959543  1.0000
  C   C30       1.0  0.23559072903478187  0.7593278516961127  0.31411507662497024  1.0000
  C   C31       1.0  0.23559072843012296  0.7406721477075433  0.8141150764512131  1.0000
  C   C32       1.0  0.7644092718879758  0.2406721479063246  0.6858849235402243  1.0000
  C   C33       1.0  0.9267916484787387  0.07976855139811324  0.2383930510042515  1.0000
  C   C34       1.0  0.07320835182642711  0.5797685511993319  0.261606949334024  1.0000
  C   C35       1.0  0.0732083512217682  0.9202314482043241  0.7616069491602668  1.0000
  C   C36       1.0  0.9267916478740799  0.4202314484031054  0.7383930508304944  1.0000
  C   C37       1.0  0.9576506537157372  0.2917533475007602  0.9275134752982879  1.0000
  C   C38       1.0  0.042349346602361525  0.7917533482596155  0.5724865246931494  1.0000
  C   C39       1.0  0.04234934578538603  0.7082466521016771  0.07248652435252055  1.0000
  C   C40       1.0  0.9576506530981455  0.20824665230045847  0.42751347547136886  1.0000
  C   C41       1.0  0.985137976388808  0.18588760597912554  0.8866052008798129  1.0000
  C   C42       1.0  0.01486202392929087  0.6858876057803442  0.6133947991116246  1.0000
  C   C43       1.0  0.014862024533949738  0.8141123936233119  0.11339479928538174  1.0000
  C   C44       1.0  0.9851379755718325  0.31411239382209316  0.38660520053918396  1.0000
  C   C45       1.0  0.4540750591791901  0.3036686108430642  0.910338986700319  1.0000
  C   C46       1.0  0.5459249399166579  0.803668610644283  0.5896610132904422  1.0000
  C   C47       1.0  0.5459249405213169  0.6963313887593732  0.0896610134641994  1.0000
  C   C48       1.0  0.4540750595844653  0.19633138895815447  0.4103389863603663  1.0000
  C   C49       1.0  0.47702664739256895  0.1960622327598933  0.8703835051106563  1.0000
  C   C50       1.0  0.5229733517032792  0.696062232561112  0.6296164948801048  1.0000
  C   C51       1.0  0.5229733523079381  0.8039377678001807  0.12961649505386208  1.0000
  C   C52       1.0  0.47702664779784415  0.30393776799896194  0.3703835047707036  1.0000
  C   C53       1.0  0.5197700778481247  0.2990467313145746  0.9803607955960665  1.0000
  C   C54       1.0  0.48022992246997415  0.7990467311157934  0.5196392043953709  1.0000
  C   C55       1.0  0.4802299218523824  0.7009532692454993  0.01963920456845193  1.0000
  C   C56       1.0  0.5197700770311491  0.20095326848664408  0.4803607952554375  1.0000
  C   C57       1.0  0.5660595808019478  0.09199759297079997  0.9009591737645499  1.0000
  C   C58       1.0  0.43394041951615103  0.5919975927720187  0.5990408262268876  1.0000
  C   C59       1.0  0.4339404201208099  0.9080024075892741  0.09904082640064475  1.0000
  C   C60       1.0  0.5660595799849722  0.4080024077880553  0.40095917342392096  1.0000
  C   C61       1.0  0.606794265134826  0.19112925542569068  0.0069624796568894315  1.0000
  C   C62       1.0  0.39320573517033997  0.6911292561845459  0.493037520681386  1.0000
  C   C63       1.0  0.3932057357879317  0.8088707441767468  0.9930375205083051  1.0000
  C   C64       1.0  0.606794264530167  0.30887074437552803  0.5069624794831323  1.0000
  C   C65       1.0  0.36310677776757133  0.4194885388755267  0.8795611607479098  1.0000
  C   C66       1.0  0.6368932225505274  0.9194885396343818  0.6204388392435275  1.0000
  C   C67       1.0  0.6368932219329355  0.5805114607269107  0.12043883941660848  1.0000
  C   C68       1.0  0.3631067781728466  0.080511460925692  0.3795611604079573  1.0000
  N   N1        1.0  0.25446558156858967  0.20291763863017423  0.08439569389971172  1.0000
  N   N2        1.0  0.7455344173149419  0.702917638431393  0.4156043059241777  1.0000
  N   N3        1.0  0.7455344179325337  0.7970823609722631  0.915604305751097  1.0000
  N   N4        1.0  0.25446558238556516  0.2970823611710445  0.5843956942403407  1.0000
  N   N5        1.0  0.1752070403955128  0.10586512959188694  0.9808409895821865  1.0000
  N   N6        1.0  0.8247929587003352  0.6058651293931057  0.5191590104085747  1.0000
  N   N7        1.0  0.8247929593049942  0.8941348709681869  0.019159010582331847  1.0000
  N   N8        1.0  0.175207040800788  0.39413487020933174  0.4808409892422338  1.0000
  N   N9        1.0  0.6360346814528378  0.09497871455575017  0.2458592618737648  1.0000
  N   N10       1.0  0.3639653188523282  0.5949787143569689  0.25414073846451074  1.0000
  N   N11       1.0  0.3639653182476693  0.9050212850466872  0.7541407382907536  1.0000
  N   N12       1.0  0.6360346808481788  0.40502128524546854  0.7458592617000076  1.0000
  N   N13       1.0  0.6309024554816687  0.08975245432834965  0.9680402397306378  1.0000
  N   N14       1.0  0.36909754483643015  0.5897524550872049  0.5319597602607996  1.0000
  N   N15       1.0  0.369097545441089  0.9102475452740877  0.031959760434556755  1.0000
  N   N16       1.0  0.6309024546646932  0.410247545472869  0.468040239390009  1.0000
  O   O1        1.0  0.3742810007028765  0.27412934940578715  0.19979976950959732  1.0000
  O   O2        1.0  0.6257189994029057  0.7741293492070058  0.30020023031496834  1.0000
  O   O3        1.0  0.6257189987982468  0.7258706501966502  0.8002002301412111  1.0000
  O   O4        1.0  0.37428100151985194  0.22587065039543155  0.6997997698502262  1.0000
  O   O5        1.0  0.20683581110476448  0.43166604044974183  0.12615355176495746  1.0000
  O   O6        1.0  0.7931641890010178  0.9316660402509606  0.3738464480596082  1.0000
  O   O7        1.0  0.7931641883963588  0.5683339591526956  0.873846447885851  1.0000
  O   O8        1.0  0.20683581069948925  0.06833395935147686  0.6261535521049101  1.0000
  S   S1        1.0  0.23217774309768524  0.29661570201319987  0.14572980267252  1.0000
  S   S2        1.0  0.7678222572074807  0.7966157018144185  0.35427019766575546  1.0000
  S   S3        1.0  0.7678222578250724  0.703384298546874  0.8542701974926745  1.0000
  S   S4        1.0  0.23217774249302636  0.2033842977880188  0.6457298024987629  1.0000
