data_image0
_chemical_formula_structural       H20C20N4O8
_chemical_formula_sum              "H20 C20 N4 O8"
_cell_length_a       3.9170205407755057
_cell_length_b       10.408262818315956
_cell_length_c       11.864527417271596
_cell_angle_alpha    90.41558142161742
_cell_angle_beta     84.59893398897108
_cell_angle_gamma    81.27859948324733

_space_group_name_H-M_alt    "P 1"
_space_group_IT_number       1

loop_
  _space_group_symop_operation_xyz
  'x, y, z'

loop_
  _atom_site_type_symbol
  _atom_site_label
  _atom_site_symmetry_multiplicity
  _atom_site_fract_x
  _atom_site_fract_y
  _atom_site_fract_z
  _atom_site_occupancy
  H   H1        1.0  0.8337241171786873  0.4476173475990376  0.5848035682592555  1.0000
  H   H2        1.0  0.16627588350876887  0.5523826514964149  0.4151964318394475  1.0000
  H   H3        1.0  0.1939555477765741  0.22478054918291127  0.5756693272870647  1.0000
  H   H4        1.0  0.8060444499807213  0.7752194508985191  0.4243306729029776  1.0000
  H   H5        1.0  0.8935804188393699  0.03640238894975492  0.916348012617078  1.0000
  H   H6        1.0  0.10641958148764286  0.9635976111177612  0.08365198748788154  1.0000
  H   H7        1.0  0.5190557245359165  0.11845121449552964  0.09398516543992869  1.0000
  H   H8        1.0  0.4809442757910963  0.8815487855719863  0.906014834665031  1.0000
  H   H9        1.0  0.1701918851332621  0.3355125573322531  0.10150806611123694  1.0000
  H   H10       1.0  0.8298081151937508  0.6644874427352631  0.8984919339937226  1.0000
  H   H11       1.0  0.2071696811333469  0.4830176252699603  0.9347198031739017  1.0000
  H   H12       1.0  0.7928303191936658  0.5169823747975559  0.06528019693105805  1.0000
  H   H13       1.0  0.9558706709812874  0.8794001603875359  0.6629101755387935  1.0000
  H   H14       1.0  0.04412932934572547  0.12059983967998021  0.33708982456616615  1.0000
  H   H15       1.0  0.40189115505183676  0.5704883158932156  0.7411953041966911  1.0000
  H   H16       1.0  0.598108845275176  0.42951168417430047  0.2588046959082686  1.0000
  H   H17       1.0  0.24566436622786136  0.9950928503323628  0.520462440565042  1.0000
  H   H18       1.0  0.7543356340991513  0.0049071497351533275  0.47953755953991767  1.0000
  H   H19       1.0  0.2460022123055955  0.025341370072981755  0.7274765881948658  1.0000
  H   H20       1.0  0.7539977880214171  0.9746586299945345  0.2725234119100938  1.0000
  C   C1        1.0  0.8152857184740585  0.381027484060567  0.6548137865414679  1.0000
  C   C2        1.0  0.18471428185295422  0.6189725160069491  0.3451862135634917  1.0000
  C   C3        1.0  0.01294486889984418  0.2549617457264054  0.6500886932462485  1.0000
  C   C4        1.0  0.9870551314271686  0.7450382543411107  0.34991130685871114  1.0000
  C   C5        1.0  0.7416894739518388  0.13337142697139073  0.9225316811450076  1.0000
  C   C6        1.0  0.2583105267356175  0.8666285721240617  0.07746831895369527  1.0000
  C   C7        1.0  0.5318698876195508  0.1781182312574946  0.019039836666900883  1.0000
  C   C8        1.0  0.46813011270746185  0.8218817688100216  0.9809601634380589  1.0000
  C   C9        1.0  0.33560189079755737  0.30438231773726876  0.024080977206324947  1.0000
  C   C10       1.0  0.6643981095294554  0.6956176823302475  0.9759190228986347  1.0000
  C   C11       1.0  0.35313793620523715  0.38528201960375164  0.9328555538372555  1.0000
  C   C12       1.0  0.6468620641217757  0.6147179804637645  0.06714444626770423  1.0000
  C   C13       1.0  0.5735600972801452  0.34312279250375066  0.8341581099549282  1.0000
  C   C14       1.0  0.42643990304686735  0.6568772075637654  0.16584189015003142  1.0000
  C   C15       1.0  0.7701142104907774  0.21532141357782603  0.8287311559005788  1.0000
  C   C16       1.0  0.2298857898362353  0.78467858648969  0.1712688442043809  1.0000
  C   C17       1.0  0.393725738709472  0.7216158513401773  0.6461477809937051  1.0000
  C   C18       1.0  0.6062742616175406  0.27838414872733885  0.3538522191112547  1.0000
  C   C19       1.0  0.23844529811679216  0.8657260008635399  0.6397458605785478  1.0000
  C   C20       1.0  0.7615547022102207  0.13427399920397615  0.360254139526412  1.0000
  N   N1        1.0  0.6018803716429774  0.42404650564514246  0.7447467970744263  1.0000
  N   N2        1.0  0.39811962868403544  0.5759534944223736  0.25525320303053345  1.0000
  N   N3        1.0  0.9904298858972408  0.17410569264478684  0.7350677075935428  1.0000
  N   N4        1.0  0.009570114429772007  0.8258943074227294  0.26493229251141687  1.0000
  O   O1        1.0  0.2759758326156724  0.6666421480202039  0.739660828683868  1.0000
  O   O2        1.0  0.7240241677113403  0.3333578520473121  0.2603391714210918  1.0000
  O   O3        1.0  0.607628812782949  0.665230153028787  0.5727410294667935  1.0000
  O   O4        1.0  0.392371187533155  0.3347698470259771  0.42725896979566463  1.0000
  O   O5        1.0  0.3088049239430031  0.9006400709448299  0.5245113327456747  1.0000
  O   O6        1.0  0.6911950763840097  0.09935992912268639  0.47548866735928497  1.0000
  O   O7        1.0  0.397605771648252  0.9373952189348436  0.7153021986146361  1.0000
  O   O8        1.0  0.6023942286787608  0.06260478113267262  0.28469780149032364  1.0000
