data_image0
_chemical_formula_structural       H64C96N16Br8I8
_chemical_formula_sum              "H64 C96 N16 Br8 I8"
_cell_length_a       29.546307732785554
_cell_length_b       4.001148684612242
_cell_length_c       20.91990765637895
_cell_angle_alpha    90.0
_cell_angle_beta     114.76967500915855
_cell_angle_gamma    90.0

_space_group_name_H-M_alt    "P 1"
_space_group_IT_number       1

loop_
  _space_group_symop_operation_xyz
  'x, y, z'

loop_
  _atom_site_type_symbol
  _atom_site_label
  _atom_site_symmetry_multiplicity
  _atom_site_fract_x
  _atom_site_fract_y
  _atom_site_fract_z
  _atom_site_occupancy
  H   H1        1.0  0.7069093262092037  0.5434567424006462  0.6979531812366179  1.0000
  H   H2        1.0  0.29309067399827493  0.5434567424006462  0.8020468190407367  1.0000
  H   H3        1.0  0.20690932627222014  0.04345674297701104  0.6979531812135498  1.0000
  H   H4        1.0  0.7930906739352583  0.04345674297701104  0.8020468190638048  1.0000
  H   H5        1.0  0.2930906739477098  0.4565432564466242  0.3020468187880163  1.0000
  H   H6        1.0  0.7069093261586387  0.4565432564466242  0.19795318098389753  1.0000
  H   H7        1.0  0.7930906738846933  0.9565432558702595  0.30204681881108447  1.0000
  H   H8        1.0  0.2069093258833506  0.9565432558702595  0.1979531809613253  1.0000
  H   H9        1.0  0.7982927398193114  0.5331492024287852  0.7348831336656628  1.0000
  H   H10       1.0  0.20170725989337457  0.5331492024287852  0.7651168660857409  1.0000
  H   H11       1.0  0.2982927398823279  0.03314920300514997  0.7348831336425947  1.0000
  H   H12       1.0  0.7017072601686626  0.03314920300514997  0.7651168661083131  1.0000
  H   H13       1.0  0.20170725999929762  0.46685079641848526  0.26511686635946735  1.0000
  H   H14       1.0  0.7982927399252343  0.46685079641848526  0.23488313393938923  1.0000
  H   H15       1.0  0.7017072602745856  0.9668507958421205  0.2651168663820396  1.0000
  H   H16       1.0  0.2982927399882509  0.9668507958421205  0.2348831339163211  1.0000
  H   H17       1.0  0.8351348340860423  0.2344963744057734  0.6643215173214071  1.0000
  H   H18       1.0  0.16486516596494824  0.2344963744057734  0.8356784824295006  1.0000
  H   H19       1.0  0.3351348341490587  0.7344963738294086  0.664321517298339  1.0000
  H   H20       1.0  0.6648651659019318  0.7344963738294086  0.8356784824525687  1.0000
  H   H21       1.0  0.1648651660708713  0.7655036269407794  0.3356784827032271  1.0000
  H   H22       1.0  0.8351348341919652  0.7655036269407794  0.16432151759513358  1.0000
  H   H23       1.0  0.6648651660078547  0.2655036275171441  0.3356784827262952  1.0000
  H   H24       1.0  0.3351348342549818  0.2655036275171441  0.16432151757206548  1.0000
  H   H25       1.0  0.7795196549171352  0.9434019246814898  0.5524780108358734  1.0000
  H   H26       1.0  0.22048034479555076  0.9434019246814898  0.9475219889155303  1.0000
  H   H27       1.0  0.27951965498015174  0.44340192525785443  0.5524780108128053  1.0000
  H   H28       1.0  0.7204803447325342  0.44340192525785443  0.9475219889385984  1.0000
  H   H29       1.0  0.2204803449014738  0.056598074165780804  0.44752198918925673  1.0000
  H   H30       1.0  0.7795196550230583  0.056598074165780804  0.052478011109599904  1.0000
  H   H31       1.0  0.7204803448384574  0.556598073589416  0.44752198921232483  1.0000
  H   H32       1.0  0.27951965508607474  0.556598073589416  0.0524780110865318  1.0000
  H   H33       1.0  0.6194488267854945  0.7044729057033693  0.3795193123864153  1.0000
  H   H34       1.0  0.3805511729825496  0.7044729057033693  0.12048068738599449  1.0000
  H   H35       1.0  0.11944882684851088  0.204472906279734  0.3795193123633472  1.0000
  H   H36       1.0  0.880551172919533  0.204472906279734  0.12048068740906259  1.0000
  H   H37       1.0  0.38055117303311464  0.29552709314390124  0.6204806876387149  1.0000
  H   H38       1.0  0.6194488268360595  0.29552709314390124  0.8795193126391356  1.0000
  H   H39       1.0  0.8805511733084027  0.7955270950668187  0.6204806876612871  1.0000
  H   H40       1.0  0.11944882689907592  0.7955270950668187  0.8795193126160675  1.0000
  H   H41       1.0  0.5271904071439797  0.7383179988689395  0.3347087225091019  1.0000
  H   H42       1.0  0.4728095929623688  0.7383179988689395  0.16529127726281198  1.0000
  H   H43       1.0  0.027190407206996167  0.2383179994453042  0.3347087224860338  1.0000
  H   H44       1.0  0.9728095928993523  0.2383179994453042  0.16529127728588006  1.0000
  H   H45       1.0  0.4728095930129338  0.261681999978331  0.6652912775155323  1.0000
  H   H46       1.0  0.5271904071945447  0.261681999978331  0.8347087227618222  1.0000
  H   H47       1.0  0.9728095929499173  0.7616819994019662  0.6652912775386004  1.0000
  H   H48       1.0  0.027190407257561184  0.7616819994019662  0.8347087227387541  1.0000
  H   H49       1.0  0.488815694150572  0.023366027450954466  0.40527627954846923  1.0000
  H   H50       1.0  0.5111843059557765  0.023366027450954466  0.09472372022344457  1.0000
  H   H51       1.0  0.9888156940875557  0.5233660268745898  0.4052762795715374  1.0000
  H   H52       1.0  0.011184305680488423  0.5233660268745898  0.09472372020087237  1.0000
  H   H53       1.0  0.5111843060063415  0.9766339738955983  0.594723720476165  1.0000
  H   H54       1.0  0.4888156942011371  0.9766339738955983  0.9052762798011897  1.0000
  H   H55       1.0  0.011184305731053484  0.47663397197268076  0.5947237204535928  1.0000
  H   H56       1.0  0.9888156941381205  0.47663397197268076  0.9052762798242576  1.0000
  H   H57       1.0  0.5414253323979092  0.2688306420945317  0.5220037440399158  1.0000
  H   H58       1.0  0.4585746678095693  0.2688306420945317  0.9779962562374388  1.0000
  H   H59       1.0  0.04142533246092576  0.7688306415181669  0.5220037440168477  1.0000
  H   H60       1.0  0.9585746677465526  0.7688306415181669  0.9779962562605069  1.0000
  H   H61       1.0  0.45857466775900424  0.7311693592520211  0.4779962559847184  1.0000
  H   H62       1.0  0.5414253323473442  0.7311693592520211  0.022003743787195437  1.0000
  H   H63       1.0  0.9585746676959879  0.23116935732910354  0.4779962560077866  1.0000
  H   H64       1.0  0.04142533207205621  0.23116935732910354  0.02200374376462323  1.0000
  C   C1        1.0  0.6904800112571613  0.2576170773068617  0.6030186088248892  1.0000
  C   C2        1.0  0.30951998879382925  0.2576170773068617  0.8969813909260186  1.0000
  C   C3        1.0  0.19048001132017775  0.7576170792297792  0.6030186088018211  1.0000
  C   C4        1.0  0.8095199887308128  0.7576170792297792  0.8969813909490865  1.0000
  C   C5        1.0  0.30951998889975224  0.7423829215404089  0.3969813911997449  1.0000
  C   C6        1.0  0.6904800113630842  0.7423829215404089  0.10301860909861581  1.0000
  C   C7        1.0  0.8095199888367357  0.24238292211677354  0.39698139122281295  1.0000
  C   C8        1.0  0.19048001142610083  0.24238292211677354  0.10301860907554769  1.0000
  C   C9        1.0  0.722965657077258  0.4134006382620343  0.6666692081791472  1.0000
  C   C10       1.0  0.27703434313022046  0.4134006382620343  0.8333307920982073  1.0000
  C   C11       1.0  0.22296565680197006  0.9134006401849518  0.666669208156575  1.0000
  C   C12       1.0  0.7770343430672041  0.9134006401849518  0.8333307921212756  1.0000
  C   C13       1.0  0.2770343430796555  0.5865993605852361  0.33333079184548703  1.0000
  C   C14       1.0  0.7229656570266929  0.5865993605852361  0.16666920792642687  1.0000
  C   C15       1.0  0.777034343016639  0.08659936116160091  0.3333307918685551  1.0000
  C   C16       1.0  0.22296565675140498  0.08659936116160091  0.16666920790385464  1.0000
  C   C17       1.0  0.7736144075519655  0.40541248472929514  0.6868459708130774  1.0000
  C   C18       1.0  0.22638559265551306  0.40541248472929514  0.8131540294642772  1.0000
  C   C19       1.0  0.27361440761498196  0.9054124841529304  0.6868459707900093  1.0000
  C   C20       1.0  0.7263855925924965  0.9054124841529304  0.8131540294873453  1.0000
  C   C21       1.0  0.22638559260494798  0.5945875166172576  0.3131540292115568  1.0000
  C   C22       1.0  0.7736144075014004  0.5945875166172576  0.1868459705603571  1.0000
  C   C23       1.0  0.7263855925419315  0.09458751469434008  0.3131540292346249  1.0000
  C   C24       1.0  0.27361440756441696  0.09458751469434008  0.186845970537289  1.0000
  C   C25       1.0  0.7947084587126717  0.2365934521855293  0.6459932443862135  1.0000
  C   C26       1.0  0.20529154100001426  0.2365934521855293  0.8540067553651902  1.0000
  C   C27       1.0  0.29470845877568824  0.7365934516091646  0.6459932443631454  1.0000
  C   C28       1.0  0.7052915409369976  0.7365934516091646  0.8540067553882581  1.0000
  C   C29       1.0  0.20529154110593725  0.7634065466617411  0.35400675563891665  1.0000
  C   C30       1.0  0.7947084586621067  0.7634065466617411  0.14599324413349313  1.0000
  C   C31       1.0  0.7052915410429207  0.26340654723810597  0.35400675566198475  1.0000
  C   C32       1.0  0.2947084588816113  0.26340654723810597  0.14599324463687183  1.0000
  C   C33       1.0  0.7645686713940173  0.07941753357530995  0.5845705859671255  1.0000
  C   C34       1.0  0.23543132881346124  0.07941753357530995  0.9154294143102292  1.0000
  C   C35       1.0  0.26456867145703383  0.5794175329989452  0.5845705859440574  1.0000
  C   C36       1.0  0.7354313287504446  0.5794175329989452  0.915429414333297  1.0000
  C   C37       1.0  0.23543132876289619  0.9205824677712428  0.4154294140575087  1.0000
  C   C38       1.0  0.7645686713434523  0.9205824677712428  0.08457058571440512  1.0000
  C   C39       1.0  0.7354313286998796  0.42058246834760754  0.4154294140805768  1.0000
  C   C40       1.0  0.2645686714064688  0.42058246834760754  0.08457058569133702  1.0000
  C   C41       1.0  0.7118242918980945  0.08880811187211256  0.5607636557515417  1.0000
  C   C42       1.0  0.288175708152896  0.08880811187211256  0.939236343999366  1.0000
  C   C43       1.0  0.21182429196111094  0.5888081137950301  0.5607636557284736  1.0000
  C   C44       1.0  0.7881757080898796  0.5888081137950301  0.939236344022434  1.0000
  C   C45       1.0  0.2881757082588191  0.911191886975158  0.43923634427309255  1.0000
  C   C46       1.0  0.7118242920040173  0.911191886975158  0.06076365602526812  1.0000
  C   C47       1.0  0.7881757081958026  0.4111918875515227  0.43923634429616065  1.0000
  C   C48       1.0  0.21182429206703396  0.4111918875515227  0.060763656002200024  1.0000
  C   C49       1.0  0.6334035464857517  0.9640528218395411  0.47670068354601164  1.0000
  C   C50       1.0  0.3665964537770848  0.9640528218395411  0.023299316752349055  1.0000
  C   C51       1.0  0.1334035465487682  0.46405282241590584  0.4767006835229435  1.0000
  C   C52       1.0  0.8665964537140682  0.46405282241590584  0.02329931677541716  1.0000
  C   C53       1.0  0.3665964536711617  0.035947177007729425  0.5232993164786225  1.0000
  C   C54       1.0  0.6334035463798288  0.035947177007729425  0.9767006832722852  1.0000
  C   C55       1.0  0.8665964536081452  0.5359471789306469  0.5232993165016907  1.0000
  C   C56       1.0  0.13340354644284522  0.5359471789306469  0.9767006832492171  1.0000
  C   C57       1.0  0.6019799072784547  0.8236927741962664  0.41025038367548816  1.0000
  C   C58       1.0  0.39802009298438185  0.8236927741962664  0.08974961662287252  1.0000
  C   C59       1.0  0.10197990734147121  0.3236927747726312  0.41025038365242  1.0000
  C   C60       1.0  0.8980200929213653  0.3236927747726312  0.08974961664594062  1.0000
  C   C61       1.0  0.39802009287845874  0.17630722465100407  0.589749616349146  1.0000
  C   C62       1.0  0.6019799071725317  0.17630722465100407  0.9102503834017617  1.0000
  C   C63       1.0  0.8980200928154424  0.6763072240746393  0.5897496163722142  1.0000
  C   C64       1.0  0.10197990723554816  0.6763072240746393  0.9102503833786936  1.0000
  C   C65       1.0  0.5511618092079064  0.8442053510759117  0.3857193941598545  1.0000
  C   C66       1.0  0.44883819089844207  0.8442053510759117  0.11428060561205938  1.0000
  C   C67       1.0  0.05116180893261837  0.34420535165227645  0.3857193941372823  1.0000
  C   C68       1.0  0.9488381908354255  0.34420535165227645  0.11428060563512749  1.0000
  C   C69       1.0  0.44883819094900707  0.1557946502706411  0.6142806058647797  1.0000
  C   C70       1.0  0.5511618092584714  0.1557946502706411  0.8857193944125749  1.0000
  C   C71       1.0  0.9488381908859906  0.6557946496942764  0.6142806058878478  1.0000
  C   C72       1.0  0.051161808983183406  0.6557946496942764  0.8857193943900026  1.0000
  C   C73       1.0  0.5292947677129333  0.004996527641395921  0.4265425215908949  1.0000
  C   C74       1.0  0.47070523205511067  0.004996527641395921  0.07345747818151488  1.0000
  C   C75       1.0  0.029294767932437887  0.5049965270650312  0.4265425220942737  1.0000
  C   C76       1.0  0.9707052319920941  0.5049965270650312  0.07345747820458298  1.0000
  C   C77       1.0  0.4707052319491876  0.9950034737051568  0.5734574779077884  1.0000
  C   C78       1.0  0.5292947677634984  0.9950034737051568  0.9265425218436154  1.0000
  C   C79       1.0  0.9707052318861712  0.4950034742815216  0.5734574779308566  1.0000
  C   C80       1.0  0.029294767826514828  0.4950034742815216  0.9265425218205471  1.0000
  C   C81       1.0  0.5581030157350294  0.14180986629718006  0.4911547542540445  1.0000
  C   C82       1.0  0.4418969840330146  0.14180986629718006  0.008845245518365331  1.0000
  C   C83       1.0  0.05810301579804589  0.6418098657208153  0.4911547542309764  1.0000
  C   C84       1.0  0.9418969839699981  0.6418098657208153  0.008845245541433441  1.0000
  C   C85       1.0  0.44189698408357964  0.8581901350493727  0.5088452457710857  1.0000
  C   C86       1.0  0.5581030157855944  0.8581901350493727  0.9911547545067648  1.0000
  C   C87       1.0  0.941896983864075  0.35819013312645515  0.508845245267707  1.0000
  C   C88       1.0  0.05810301584861092  0.35819013312645515  0.9911547544836966  1.0000
  C   C89       1.0  0.6108323808456861  0.12800394096067805  0.5180965517173333  1.0000
  C   C90       1.0  0.38916761902348784  0.12800394096067805  0.9819034485605173  1.0000
  C   C91       1.0  0.11083238090870273  0.6280039403843133  0.5180965516942652  1.0000
  C   C92       1.0  0.8891676189604711  0.6280039403843133  0.9819034485835851  1.0000
  C   C93       1.0  0.38916761897292274  0.8719960603858747  0.4819034483077968  1.0000
  C   C94       1.0  0.6108323807951211  0.8719960603858747  0.01809655146461295  1.0000
  C   C95       1.0  0.8891676189099064  0.3719960584629572  0.4819034483308649  1.0000
  C   C96       1.0  0.1108323808581377  0.3719960584629572  0.018096551441544838  1.0000
  N   N1        1.0  0.6403967182252541  0.2656060705984464  0.5808119914430856  1.0000
  N   N2        1.0  0.35960328182573637  0.2656060705984464  0.9191880083078221  1.0000
  N   N3        1.0  0.14039671794996614  0.7656060700220816  0.5808119914205134  1.0000
  N   N4        1.0  0.8596032817627199  0.7656060700220816  0.9191880083308904  1.0000
  N   N5        1.0  0.3596032819316594  0.7343939307481064  0.4191880085815487  1.0000
  N   N6        1.0  0.6403967183311772  0.7343939307481064  0.08081199171681203  1.0000
  N   N7        1.0  0.8596032818686429  0.23439392882518886  0.4191880086046168  1.0000
  N   N8        1.0  0.14039671805588916  0.23439392882518886  0.08081199169423982  1.0000
  N   N9        1.0  0.6830508610735014  0.9415643798713517  0.4994276424917202  1.0000
  N   N10       1.0  0.3169491386945426  0.9415643798713517  0.0005723572806895187  1.0000
  N   N11       1.0  0.183050861293006  0.44156438044771634  0.499427642995099  1.0000
  N   N12       1.0  0.8169491386315261  0.44156438044771634  0.0005723573037576275  1.0000
  N   N13       1.0  0.3169491385886196  0.05843561897591888  0.5005723570069631  1.0000
  N   N14       1.0  0.6830508614623709  0.05843561897591888  0.9994276427439446  1.0000
  N   N15       1.0  0.816949138525603  0.5584356208988364  0.5005723570300312  1.0000
  N   N16       1.0  0.18305086118708294  0.5584356208988364  0.9994276427213725  1.0000
  Br  Br1       1.0  0.565244616303058  0.6961649889973892  0.7440625981937942  1.0000
  Br  Br2       1.0  0.4347553839044205  0.6961649889973892  0.7559374020835604  1.0000
  Br  Br3       1.0  0.06524461602777008  0.19616498957375397  0.744062598171222  1.0000
  Br  Br4       1.0  0.9347553838414041  0.19616498957375397  0.7559374021066286  1.0000
  Br  Br5       1.0  0.4347553838538555  0.3038350098498812  0.2559374018308401  1.0000
  Br  Br6       1.0  0.565244616252493  0.3038350098498812  0.24406259794107374  1.0000
  Br  Br7       1.0  0.934755383790839  0.8038350092735165  0.2559374018539082  1.0000
  Br  Br8       1.0  0.065244615977205  0.8038350092735165  0.24406259791850157  1.0000
  I   I1        1.0  0.6041764905617433  0.4791631631619307  0.6595936688468097  1.0000
  I   I2        1.0  0.3958235094892471  0.4791631631619307  0.840406330904098  1.0000
  I   I3        1.0  0.10417649062475985  0.9791631625855659  0.6595936688237416  1.0000
  I   I4        1.0  0.8958235094262306  0.9791631625855659  0.8404063309271662  1.0000
  I   I5        1.0  0.3958235095951702  0.5208368356853399  0.3404063311778245  1.0000
  I   I6        1.0  0.6041764906676663  0.5208368356853399  0.15959366912053616  1.0000
  I   I7        1.0  0.8958235095321537  0.020836836261704593  0.3404063312008926  1.0000
  I   I8        1.0  0.10417649073068287  0.020836836261704593  0.15959366909746805  1.0000
