data_image0
_chemical_formula_structural       H68C52N12O32
_chemical_formula_sum              "H68 C52 N12 O32"
_cell_length_a       14.609201637272413
_cell_length_b       6.927754495873109
_cell_length_c       15.500785196027552
_cell_angle_alpha    90.0
_cell_angle_beta     110.2399001622189
_cell_angle_gamma    90.0

_space_group_name_H-M_alt    "P 1"
_space_group_IT_number       1

loop_
  _space_group_symop_operation_xyz
  'x, y, z'

loop_
  _atom_site_type_symbol
  _atom_site_label
  _atom_site_symmetry_multiplicity
  _atom_site_fract_x
  _atom_site_fract_y
  _atom_site_fract_z
  _atom_site_occupancy
  H   H1        1.0  0.288562733914402  0.1708904307601036  0.19236576683983964  1.0000
  H   H2        1.0  0.7114372662844787  0.6708904310579556  0.307634233270346  1.0000
  H   H3        1.0  0.7114372661860071  0.8291095683921312  0.8076342334318992  1.0000
  H   H4        1.0  0.28856273382007147  0.3291095695377484  0.6923657663576248  1.0000
  H   H5        1.0  0.4176519263737485  0.16935951911964092  0.21590017991734348  1.0000
  H   H6        1.0  0.582348073095596  0.6693595194174928  0.2840998199513129  1.0000
  H   H7        1.0  0.5823480729971244  0.8306404814760631  0.784099820112866  1.0000
  H   H8        1.0  0.4176519270089541  0.33064048117821104  0.7159001796766579  1.0000
  H   H9        1.0  0.2961181079472346  0.5195596325106737  0.2372486413572364  1.0000
  H   H10       1.0  0.7038818922516461  0.019559633656290862  0.2627513587529493  1.0000
  H   H11       1.0  0.7038818921531746  0.48044036664156115  0.7627513589145024  1.0000
  H   H12       1.0  0.296118107848763  0.9804403669394132  0.7372486415187895  1.0000
  H   H13       1.0  0.3511772204735039  0.4809806181764892  0.15233562967796946  1.0000
  H   H14       1.0  0.6488227797253768  0.980980617030872  0.3476643704322162  1.0000
  H   H15       1.0  0.6488227796269053  0.5190193824192149  0.8476643705937694  1.0000
  H   H16       1.0  0.3511772203791733  0.019019382121362834  0.6523356291957546  1.0000
  H   H17       1.0  0.4118689277778346  0.5562420380652273  0.39963189265389615  1.0000
  H   H18       1.0  0.5881310724210461  0.05624203776737538  0.1003681074562895  1.0000
  H   H19       1.0  0.5881310723225746  0.44375796108700744  0.6003681076178428  1.0000
  H   H20       1.0  0.41186892767936306  0.9437579613848595  0.8996318928154494  1.0000
  H   H21       1.0  0.5386224991573352  0.5489718035281919  0.41471283600792  1.0000
  H   H22       1.0  0.4613775010415455  0.04897180323033983  0.0852871641022657  1.0000
  H   H23       1.0  0.46137750094307395  0.4510281970675122  0.5852871642638189  1.0000
  H   H24       1.0  0.5386224990588636  0.951028195921895  0.9147128361694732  1.0000
  H   H25       1.0  0.48117982608310833  0.23570676197788706  0.46359488453634984  1.0000
  H   H26       1.0  0.5188201741157725  0.7357067622757391  0.03640511557383587  1.0000
  H   H27       1.0  0.518820174017301  0.7642932386178168  0.5364051157353891  1.0000
  H   H28       1.0  0.4811798259846367  0.26429323831996493  0.963594884697903  1.0000
  H   H29       1.0  0.5296680742656816  0.20651919476249947  0.37274506158331533  1.0000
  H   H30       1.0  0.47033192593319917  0.7065191950603514  0.12725493852687036  1.0000
  H   H31       1.0  0.4703319258347276  0.7934808043897353  0.6272549386884235  1.0000
  H   H32       1.0  0.5296680741672101  0.2934808055353525  0.8727450617448684  1.0000
  H   H33       1.0  0.32514996081456987  0.8927962045543721  0.29284846554100363  1.0000
  H   H34       1.0  0.6748500393843109  0.39279620425652023  0.20715153456918203  1.0000
  H   H35       1.0  0.6748500392899803  0.10720379604133176  0.7071515340869672  1.0000
  H   H36       1.0  0.3251499607160983  0.6072037963391838  0.7928484657025568  1.0000
  H   H37       1.0  0.4037943436457071  0.9172574914115998  0.4107585591335465  1.0000
  H   H38       1.0  0.5962056558236373  0.41725749111374777  0.08924144073510994  1.0000
  H   H39       1.0  0.596205656458843  0.08274250774063505  0.5892414404944243  1.0000
  H   H40       1.0  0.40379434354723553  0.582742508038487  0.9107585592950997  1.0000
  H   H41       1.0  0.45373624061079787  0.9234214670584617  0.3193124595615431  1.0000
  H   H42       1.0  0.5462637588585466  0.4234214682040789  0.18068754030711326  1.0000
  H   H43       1.0  0.546263758760075  0.07657853209377315  0.6806875404686665  1.0000
  H   H44       1.0  0.45373624124600354  0.5765785323916252  0.8193124593208575  1.0000
  H   H45       1.0  0.27768738986262037  0.3829369302246982  0.348644004659034  1.0000
  H   H46       1.0  0.7223126103362604  0.8829369305225502  0.15135599545115164  1.0000
  H   H47       1.0  0.7223126102377888  0.6170630689275367  0.6513559956127049  1.0000
  H   H48       1.0  0.27768738976828977  0.11706306862968463  0.8486440041768192  1.0000
  H   H49       1.0  0.2280377120420672  0.1536679887594416  0.3098583344367988  1.0000
  H   H50       1.0  0.7719622881568136  0.6536679890572936  0.1901416656733869  1.0000
  H   H51       1.0  0.771962288058342  0.8463320103927933  0.6901416658349401  1.0000
  H   H52       1.0  0.22803771194359562  0.3463320100949412  0.809858334598352  1.0000
  H   H53       1.0  0.18121447751912892  0.19590768564453168  0.5346220931977903  1.0000
  H   H54       1.0  0.8187855224869497  0.6959076859423836  0.9653779065917336  1.0000
  H   H55       1.0  0.8187855225854211  0.804092313507703  0.4653779064301805  1.0000
  H   H56       1.0  0.18121447688392328  0.3040923146533203  0.03462209343847591  1.0000
  H   H57       1.0  0.059068932978371305  0.2155891697504167  0.7042733668561912  1.0000
  H   H58       1.0  0.9409310670235663  0.7155891700482687  0.7957266335771009  1.0000
  H   H59       1.0  0.9409310663925016  0.7844108308452873  0.2957266331740184  1.0000
  H   H60       1.0  0.059068933076842856  0.2844108305474353  0.20427336669463791  1.0000
  H   H61       1.0  0.8529781186541816  0.3015443086564976  0.3763010712165097  1.0000
  H   H62       1.0  0.14702188154469906  0.8015443089543497  0.12369892889367588  1.0000
  H   H63       1.0  0.14702188144622752  0.6984556919392063  0.623698929055229  1.0000
  H   H64       1.0  0.8529781185598511  0.19845569164135438  0.876301070734295  1.0000
  H   H65       1.0  0.03084602675336421  0.24396200832561324  0.41776097839571247  1.0000
  H   H66       1.0  0.9691539734455166  0.7439620086234652  0.08223902171447323  1.0000
  H   H67       1.0  0.969153973351186  0.7560379908266215  0.5822390212322585  1.0000
  H   H68       1.0  0.030846026654892666  0.25603799197223875  0.9177609785572657  1.0000
  C   C1        1.0  0.35851275048842296  0.23356885567522828  0.23443006278653708  1.0000
  C   C2        1.0  0.6414872497104577  0.7335688559730803  0.2655699373236486  1.0000
  C   C3        1.0  0.6414872496161271  0.7664311434770066  0.7655699368414338  1.0000
  C   C4        1.0  0.3585127503899514  0.2664311446226237  0.7344300629480902  1.0000
  C   C5        1.0  0.357838430733255  0.45074075905261335  0.22365095819449332  1.0000
  C   C6        1.0  0.6421615694656257  0.9507407593504653  0.2763490419156924  1.0000
  C   C7        1.0  0.6421615693671541  0.5492592415430906  0.7763490420772455  1.0000
  C   C8        1.0  0.35783843063478343  0.04925924124523863  0.7236509583560465  1.0000
  C   C9        1.0  0.4670570057792813  0.4871415264513747  0.3759321116556904  1.0000
  C   C10       1.0  0.5329429944237405  0.9871415267492267  0.12406788781072718  1.0000
  C   C11       1.0  0.5329429943252689  0.5128584741443293  0.6240678879722804  1.0000
  C   C12       1.0  0.4670570056808097  0.012858473846477314  0.8759321118172436  1.0000
  C   C13       1.0  0.4712545039979247  0.2714283785778141  0.39217755017576095  1.0000
  C   C14       1.0  0.5287454962009561  0.7714283788756662  0.10782244993442476  1.0000
  C   C15       1.0  0.5287454961024846  0.7285716220178898  0.607822450095978  1.0000
  C   C16       1.0  0.4712545039035941  0.22857162172003787  0.892177549693546  1.0000
  C   C17       1.0  0.3914979147841567  0.9600186314283933  0.33984649099756603  1.0000
  C   C18       1.0  0.6085020854147242  0.4600186325740103  0.1601535091126196  1.0000
  C   C19       1.0  0.6085020853162525  0.03998136772384165  0.6601535092741727  1.0000
  C   C20       1.0  0.3914979146856851  0.5399813680216936  0.8398464911591192  1.0000
  C   C21       1.0  0.2906685637079681  0.22787857464354863  0.3587659661004662  1.0000
  C   C22       1.0  0.7093314364909126  0.7278785749414006  0.1412340340097195  1.0000
  C   C23       1.0  0.7093314363924411  0.7721214245086861  0.6412340341712728  1.0000
  C   C24       1.0  0.2906685636136376  0.2721214242108342  0.8587659656182512  1.0000
  C   C25       1.0  0.2926776920702155  0.18118712502698234  0.45606356353763716  1.0000
  C   C26       1.0  0.7073223081286653  0.6811871253248344  0.04393643657254852  1.0000
  C   C27       1.0  0.7073223080301936  0.8188128755687216  0.5439364367341017  1.0000
  C   C28       1.0  0.292677691971744  0.31881287527086966  0.9560635636991903  1.0000
  C   C29       1.0  0.05763111459278541  0.22703070106438256  0.5641803787439802  1.0000
  C   C30       1.0  0.9423688854091521  0.7270306999187653  0.935819621689312  1.0000
  C   C31       1.0  0.9423688855076238  0.7729692995313215  0.4358196215277587  1.0000
  C   C32       1.0  0.05763111469125696  0.27296929923346946  0.06418037858242696  1.0000
  C   C33       1.0  0.013848773075543202  0.23549235628540985  0.6326401246655781  1.0000
  C   C34       1.0  0.9861512269263943  0.7354923565832618  0.8673598757677139  1.0000
  C   C35       1.0  0.9861512270248659  0.7645076443102942  0.36735987560616074  1.0000
  C   C36       1.0  0.013848773174014749  0.26450764401244214  0.13264012450402488  1.0000
  C   C37       1.0  0.9151964780190617  0.267332311083375  0.608064684442745  1.0000
  C   C38       1.0  0.08480352198287587  0.767332311381227  0.891935315990547  1.0000
  C   C39       1.0  0.0848035213518112  0.7326676880688597  0.39193531558746453  1.0000
  C   C40       1.0  0.9151964781175332  0.23266768921447695  0.10806468428119188  1.0000
  C   C41       1.0  0.8555577606305201  0.2932925814865966  0.5155877464725079  1.0000
  C   C42       1.0  0.14444223937555847  0.7932925803409795  0.9844122533170161  1.0000
  C   C43       1.0  0.14444223946988907  0.7067074191091074  0.4844122537992309  1.0000
  C   C44       1.0  0.8555577607289917  0.20670741881125537  0.015587746310954739  1.0000
  C   C45       1.0  0.8991449605632562  0.2839143998494294  0.4478253753384811  1.0000
  C   C46       1.0  0.10085503890608814  0.7839144001472813  0.05217462453017528  1.0000
  C   C47       1.0  0.10085503954129378  0.7160855993028054  0.5521746242894897  1.0000
  C   C48       1.0  0.8991449604647849  0.21608559900495344  0.9478253755000342  1.0000
  C   C49       1.0  0.9978230661247441  0.25139961455584187  0.4708116828495658  1.0000
  C   C50       1.0  0.0021769340741365577  0.7513996148536939  0.029188317260619857  1.0000
  C   C51       1.0  0.0021769339756650087  0.7486003860398621  0.5291883174221731  1.0000
  C   C52       1.0  0.9978230660304135  0.24860038574201015  0.9708116823673509  1.0000
  N   N1        1.0  0.37774013893202224  0.17410586514266865  0.33319046302408584  1.0000
  N   N2        1.0  0.6222598612668585  0.6741058639970514  0.1668095370860998  1.0000
  N   N3        1.0  0.6222598611683869  0.8258941354530352  0.666809537247653  1.0000
  N   N4        1.0  0.3777401388335508  0.32589413515518334  0.833190463185639  1.0000
  N   N5        1.0  0.8780875984308791  0.27640299048424494  0.6854971380550786  1.0000
  N   N6        1.0  0.1219124015751995  0.7764029907820968  0.8145028617344453  1.0000
  N   N7        1.0  0.12191240167367105  0.7235970101114592  0.31450286157289215  1.0000
  N   N8        1.0  0.8780875985293506  0.22359700981360708  0.18549713789352548  1.0000
  N   N9        1.0  0.7527173901023783  0.3230598675708316  0.488947366077507  1.0000
  N   N10       1.0  0.24728261009650254  0.8230598678686837  0.011052634032678673  1.0000
  N   N11       1.0  0.24728261000217197  0.6769401315814032  0.5110526335504638  1.0000
  N   N12       1.0  0.7527173900039066  0.1769401312835512  0.9889473662390602  1.0000
  O   O1        1.0  0.44837391095290363  0.5333717689045082  0.28130337224793656  1.0000
  O   O2        1.0  0.5516260892459771  0.03337176860665626  0.21869662786224905  1.0000
  O   O3        1.0  0.5516260891516465  0.46662823024772654  0.7186966273800341  1.0000
  O   O4        1.0  0.4483739108544321  0.9666282305455786  0.7813033724094898  1.0000
  O   O5        1.0  0.20681855531070284  0.20743320665535336  0.4592473950581583  1.0000
  O   O6        1.0  0.7931814448881779  0.7074332069532053  0.040752605052027296  1.0000
  O   O7        1.0  0.7931814447897064  0.7925667939403507  0.5407526052135806  1.0000
  O   O8        1.0  0.20681855521223125  0.29256679364249866  0.9592473952197115  1.0000
  O   O9        1.0  0.3682982447278751  0.1309388244835134  0.5194960728920734  1.0000
  O   O10       1.0  0.6317017552740625  0.6309388247813654  0.9805039275412187  1.0000
  O   O11       1.0  0.6317017553725339  0.8690611761121906  0.4805039273796654  1.0000
  O   O12       1.0  0.36829824482634665  0.36906117581433856  0.019496072730520193  1.0000
  O   O13       1.0  0.15229336577194036  0.19580513004727096  0.5913678987392442  1.0000
  O   O14       1.0  0.8477066342299974  0.6958051303451229  0.9086321016940478  1.0000
  O   O15       1.0  0.8477066343284688  0.8041948691049638  0.4086321015324947  1.0000
  O   O16       1.0  0.15229336587041192  0.30419487025058106  0.09136789857769101  1.0000
  O   O17       1.0  0.8674252049945406  0.12136591741246949  0.7205912309127748  1.0000
  O   O18       1.0  0.13257479501153818  0.6213659177103215  0.7794087688767493  1.0000
  O   O19       1.0  0.13257479510586875  0.8786340817397653  0.2794087693589642  1.0000
  O   O20       1.0  0.8674252050930119  0.37863408144191335  0.22059123075122145  1.0000
  O   O21       1.0  0.8671462236225068  0.4376442441495451  0.7145476605915084  1.0000
  O   O22       1.0  0.13285377638357185  0.9376442444473971  0.7854523391980155  1.0000
  O   O23       1.0  0.13285377647790245  0.5623557564461589  0.28545233968023037  1.0000
  O   O24       1.0  0.8671462237209783  0.062355756148306844  0.2145476604299553  1.0000
  O   O25       1.0  0.7146459059554839  0.3151000098661671  0.5501032050506718  1.0000
  O   O26       1.0  0.28535409405059453  0.8151000101640191  0.9498967947388521  1.0000
  O   O27       1.0  0.28535409414492513  0.6848999907295369  0.449896795221067  1.0000
  O   O28       1.0  0.7146459060539556  0.18489999043168492  0.050103204889118666  1.0000
  O   O29       1.0  0.7045867990789924  0.35482469124220883  0.4064074905612867  1.0000
  O   O30       1.0  0.29541320111988845  0.8548246915400608  0.09359250954889897  1.0000
  O   O31       1.0  0.2954132010214169  0.6451753093534952  0.5935925097104522  1.0000
  O   O32       1.0  0.7045867989805207  0.1451753090556432  0.9064074907228398  1.0000
