data_image0
_chemical_formula_structural       H40C58N8O2
_chemical_formula_sum              "H40 C58 N8 O2"
_cell_length_a       7.60176309148692
_cell_length_b       9.150897833309473
_cell_length_c       15.49409291235477
_cell_angle_alpha    96.66832431269725
_cell_angle_beta     91.49470775135423
_cell_angle_gamma    102.76970440600616

_space_group_name_H-M_alt    "P 1"
_space_group_IT_number       1

loop_
  _space_group_symop_operation_xyz
  'x, y, z'

loop_
  _atom_site_type_symbol
  _atom_site_label
  _atom_site_symmetry_multiplicity
  _atom_site_fract_x
  _atom_site_fract_y
  _atom_site_fract_z
  _atom_site_occupancy
  H   H1        1.0  0.05392945310652458  0.22535779256667499  0.4775704090914779  1.0000
  H   H2        1.0  0.9460705461148571  0.7746422064035225  0.5224295904855567  1.0000
  H   H3        1.0  0.21942954282986937  0.7042268871293451  0.6901868299624351  1.0000
  H   H4        1.0  0.780570456715913  0.29577311296995623  0.3098131703416714  1.0000
  H   H5        1.0  0.9174000293703392  0.7363537988246938  0.7333770382644748  1.0000
  H   H6        1.0  0.08259997016689642  0.26364620127482796  0.26662296139414393  1.0000
  H   H7        1.0  0.9737080901893329  0.9522030809933951  0.8500778928763352  1.0000
  H   H8        1.0  0.026291910661202726  0.04779691909665111  0.149922106794219  1.0000
  H   H9        1.0  0.11399850085317059  0.9287966174453672  0.9948157548169125  1.0000
  H   H10       1.0  0.8860015000059117  0.07120338264445844  0.005184245499129305  1.0000
  H   H11       1.0  0.18019656800880884  0.6823254442933567  0.02170444710039469  1.0000
  H   H12       1.0  0.8198034328502735  0.317674555796469  0.9782955532156472  1.0000
  H   H13       1.0  0.122936471715645  0.4671935747179396  0.9052513548424844  1.0000
  H   H14       1.0  0.8770635291348906  0.5328064253721065  0.0947486448280697  1.0000
  H   H15       1.0  0.6806355146912283  0.18784619535656466  0.8608284218258433  1.0000
  H   H16       1.0  0.319364484854554  0.8121538047427367  0.13917157847826309  1.0000
  H   H17       1.0  0.4974891313707575  0.9532213209602001  0.9089617736361475  1.0000
  H   H18       1.0  0.5025108681664779  0.046778679139321565  0.09103822602247127  1.0000
  H   H19       1.0  0.45148279578210515  0.7096064561033542  0.812853760607774  1.0000
  H   H20       1.0  0.5485172037636771  0.29039354399594713  0.18714623969633237  1.0000
  H   H21       1.0  0.5909293156474037  0.7018724129896637  0.6675420374769638  1.0000
  H   H22       1.0  0.4090706848958248  0.2981275859708379  0.33245796275749384  1.0000
  H   H23       1.0  0.7686935811310003  0.9384639149714364  0.6205000098722895  1.0000
  H   H24       1.0  0.23130641841478214  0.061536085127864834  0.37949999043181687  1.0000
  H   H25       1.0  0.5823325764856248  0.9171416865353037  0.4928152086854061  1.0000
  H   H26       1.0  0.41766742437345766  0.08285831355452214  0.5071847916306358  1.0000
  H   H27       1.0  0.7950567132507653  0.07257853953064271  0.4042055390757952  1.0000
  H   H28       1.0  0.20494328597916323  0.9274214594393344  0.5957944611467271  1.0000
  H   H29       1.0  0.8586197022129709  0.9652644861466158  0.2556359173032224  1.0000
  H   H30       1.0  0.14138029732426455  0.034735513952906076  0.7443640823553962  1.0000
  H   H31       1.0  0.706892613713155  0.7006156760830373  0.1978021408041898  1.0000
  H   H32       1.0  0.29310738550822657  0.2993843228871603  0.8021978587728447  1.0000
  H   H33       1.0  0.48713752968148183  0.546301428453679  0.28637419991312874  1.0000
  H   H34       1.0  0.5128624711690538  0.4536985716363673  0.7136257997574255  1.0000
  H   H35       1.0  0.3687684500574847  0.5818482749548928  0.13790604019854036  1.0000
  H   H36       1.0  0.6312315508015978  0.41815172513493293  0.8620939601175015  1.0000
  H   H37       1.0  0.28028911850384486  0.3146846893233944  0.07160371585591056  1.0000
  H   H38       1.0  0.7197108823552375  0.6853153107664314  0.9283962844601313  1.0000
  H   H39       1.0  0.4099277229112786  0.2315802616439875  0.9335827322486371  1.0000
  H   H40       1.0  0.5900722763186498  0.7684197373259896  0.06641726797388516  1.0000
  C   C1        1.0  0.8458618452321894  0.21633685141580095  0.7086985643319418  1.0000
  C   C2        1.0  0.15413815431359287  0.7836631486835003  0.29130143597216457  1.0000
  C   C3        1.0  0.013617859495889688  0.3341704242987435  0.6040969592917664  1.0000
  C   C4        1.0  0.9863821413546461  0.6658295757913029  0.39590304037878793  1.0000
  C   C5        1.0  0.08798877563719519  0.3300399664982215  0.5217482992758606  1.0000
  C   C6        1.0  0.9120112239000403  0.6699600336013002  0.47825170038275816  1.0000
  C   C7        1.0  0.2064205163278284  0.45932027724258423  0.5011298401344384  1.0000
  C   C8        1.0  0.793579484531254  0.5406797228472414  0.49887016018160346  1.0000
  C   C9        1.0  0.39438123533271374  0.6314610197785353  0.4459166501704647  1.0000
  C   C10       1.0  0.6056187642130686  0.3685389803207659  0.5540833501336417  1.0000
  C   C11       1.0  0.24646931552752305  0.5905430245593026  0.5629011116191601  1.0000
  C   C12       1.0  0.7535306853315594  0.4094569755305231  0.4370988886968818  1.0000
  C   C13       1.0  0.18014442958736385  0.6017893220037971  0.6447528923730582  1.0000
  C   C14       1.0  0.8198555712717186  0.39821067808602867  0.35524710794298364  1.0000
  C   C15       1.0  0.0612445548101582  0.4715235867033051  0.6650065319693982  1.0000
  C   C16       1.0  0.9387554444197702  0.528476412266672  0.3349934682531239  1.0000
  C   C17       1.0  0.021691338184316327  0.590674838618957  0.8116203338541561  1.0000
  C   C18       1.0  0.9783086613529193  0.40932516148056486  0.18837966580446253  1.0000
  C   C19       1.0  0.9792598282664919  0.7265980427776437  0.7959869306863797  1.0000
  C   C20       1.0  0.02074017259259043  0.2734019573121821  0.20401306962966215  1.0000
  C   C21       1.0  0.012030326598499095  0.8480406003502765  0.862134335108811  1.0000
  C   C22       1.0  0.9879696729472832  0.15195939974902473  0.13786566519529544  1.0000
  C   C23       1.0  0.08712779678487827  0.8338721535112158  0.9431815360299389  1.0000
  C   C24       1.0  0.9128722027609041  0.16612784658808538  0.056818464274167424  1.0000
  C   C25       1.0  0.12540257988394546  0.6963925390846892  0.9584625161795889  1.0000
  C   C26       1.0  0.8745974196532901  0.30360746101483244  0.041537483479029816  1.0000
  C   C27       1.0  0.09306540658843344  0.5742028167280889  0.8930386161916589  1.0000
  C   C28       1.0  0.9069345942706489  0.42579718336173683  0.10696138412438301  1.0000
  C   C29       1.0  0.7353888490791487  0.07773633822876962  0.7374363840490795  1.0000
  C   C30       1.0  0.2646111514555331  0.9222636607319525  0.2625636155398905  1.0000
  C   C31       1.0  0.6589499976360587  0.08083760044923484  0.8190421522697917  1.0000
  C   C32       1.0  0.34105000321447704  0.9191623996408114  0.18095784740076246  1.0000
  C   C33       1.0  0.5569558439008079  0.9493300419573486  0.8456327755538227  1.0000
  C   C34       1.0  0.4430441569582746  0.05066995813247721  0.15436722476221926  1.0000
  C   C35       1.0  0.5303522598277967  0.8123076254725892  0.7913169607320201  1.0000
  C   C36       1.0  0.46964773971798573  0.18769237462671218  0.2086830395720864  1.0000
  C   C37       1.0  0.606594471174313  0.8079667498255249  0.7102335727254788  1.0000
  C   C38       1.0  0.39340552836292264  0.192033250273997  0.2897664269331399  1.0000
  C   C39       1.0  0.7080708562470662  0.9398283773789665  0.6834297361729904  1.0000
  C   C40       1.0  0.2919291446034694  0.06017162271107986  0.3165702634975638  1.0000
  C   C41       1.0  0.5190746096822306  0.7223987088111721  0.3945144838553873  1.0000
  C   C42       1.0  0.480925389855005  0.27760129128834965  0.6054855158032314  1.0000
  C   C43       1.0  0.6079513790771849  0.8709323024789531  0.42772034956387917  1.0000
  C   C44       1.0  0.39204862177335076  0.12906769761109305  0.572279650106675  1.0000
  C   C45       1.0  0.728195418506823  0.9576826544465582  0.3776271412526377  1.0000
  C   C46       1.0  0.2718045823522594  0.0423173456432675  0.6223728590634042  1.0000
  C   C47       1.0  0.7634698708280907  0.8972973003462975  0.2945631474664795  1.0000
  C   C48       1.0  0.23653013003099163  0.10270269974352825  0.7054368528495624  1.0000
  C   C49       1.0  0.6779393752024511  0.7490587417836887  0.2619581138282005  1.0000
  C   C50       1.0  0.3220606243433313  0.2509412583156126  0.738041886475906  1.0000
  C   C51       1.0  0.5554909762655887  0.6617218052960713  0.31109652233027857  1.0000
  C   C52       1.0  0.44450902296433975  0.33827819367390577  0.6889034778922436  1.0000
  C   C53       1.0  0.4274122422046221  0.5461934891283956  0.0777109780935578  1.0000
  C   C54       1.0  0.5725877586459136  0.4538065109616506  0.9222890215769964  1.0000
  C   C55       1.0  0.37646142620251444  0.3957218406040898  0.04017481836633746  1.0000
  C   C56       1.0  0.6235385746565679  0.6042781594857358  0.9598251819497045  1.0000
  C   C57       1.0  0.4491663801758961  0.3494643334204023  0.9625922651856524  1.0000
  C   C58       1.0  0.5508336193698863  0.6505356666788991  0.03740773511845395  1.0000
  N   N1        1.0  0.9863814763314028  0.4645664225005388  0.7447508166293123  1.0000
  N   N2        1.0  0.013618523214379527  0.5354335775987624  0.2552491836747942  1.0000
  N   N3        1.0  0.8845995664067369  0.3363678840554729  0.7694771738748176  1.0000
  N   N4        1.0  0.11540043313904536  0.6636321160438283  0.2305228264292887  1.0000
  N   N5        1.0  0.8989679323379156  0.2093013286890681  0.6264049473929149  1.0000
  N   N6        1.0  0.1010320671993199  0.7906986714104537  0.37359505226570394  1.0000
  N   N7        1.0  0.30364713617150674  0.49021646441236805  0.428291159224869  1.0000
  N   N8        1.0  0.6963528633657289  0.5097835356871538  0.5717088404337497  1.0000
  O   O1        1.0  0.36460580500774  0.6998997968797642  0.5279230067182453  1.0000
  O   O2        1.0  0.6353941945380424  0.3001002032195371  0.47207699358586114  1.0000
