data_image0
_chemical_formula_structural       H22C26N2O4F4I2
_chemical_formula_sum              "H22 C26 N2 O4 F4 I2"
_cell_length_a       7.062688741879257
_cell_length_b       7.301579770257682
_cell_length_c       14.577626742205533
_cell_angle_alpha    80.829822337507
_cell_angle_beta     78.82094415347535
_cell_angle_gamma    62.89864702477173

_space_group_name_H-M_alt    "P 1"
_space_group_IT_number       1

loop_
  _space_group_symop_operation_xyz
  'x, y, z'

loop_
  _atom_site_type_symbol
  _atom_site_label
  _atom_site_symmetry_multiplicity
  _atom_site_fract_x
  _atom_site_fract_y
  _atom_site_fract_z
  _atom_site_occupancy
  H   H1        1.0  0.5248718038715837  0.2571065647925083  0.9467918457972568  1.0000
  H   H2        1.0  0.4751281970579154  0.7428934341196809  0.05320815423693914  1.0000
  H   H3        1.0  0.9985432902425072  0.33911655732368207  0.877118075572182  1.0000
  H   H4        1.0  0.001456709959550105  0.6608834431275735  0.12288192445866047  1.0000
  H   H5        1.0  0.8833649814233197  0.5116031171065789  0.7800047387515581  1.0000
  H   H6        1.0  0.11663501736525425  0.4883968833406219  0.2199952612780576  1.0000
  H   H7        1.0  0.9797722261754463  0.24021983564140345  0.7775185124201128  1.0000
  H   H8        1.0  0.020227774026610666  0.7597801648098522  0.2224814876107298  1.0000
  H   H9        1.0  0.9534172022914853  0.6944264641687339  0.9381261751017382  1.0000
  H   H10       1.0  0.04658279863801351  0.30557353474345544  0.0618738249324578  1.0000
  H   H11       1.0  0.05756125366744043  0.78885539064593  0.8281578129982667  1.0000
  H   H12       1.0  0.9424387472620586  0.21114460826625922  0.17184218703592924  1.0000
  H   H13       1.0  0.08070010829296481  0.8587266237989367  0.9337919426000884  1.0000
  H   H14       1.0  0.9192998921366493  0.14127337677054352  0.06620805672918768  1.0000
  H   H15       1.0  0.4887171260532406  0.6013355915095759  0.6666841057398336  1.0000
  H   H16       1.0  0.5112828741488166  0.39866440894167965  0.33331589429100894  1.0000
  H   H17       1.0  0.4430680843305493  0.9172536324655461  0.5617387112030534  1.0000
  H   H18       1.0  0.5569319158715079  0.08274636798570936  0.43826128882778914  1.0000
  H   H19       1.0  0.42454025353478686  0.22645151688649034  0.7803076125923357  1.0000
  H   H20       1.0  0.5754597466672704  0.7735484835647652  0.21969238743850683  1.0000
  H   H21       1.0  0.46555630101893397  0.9235365118080329  0.8957344654190631  1.0000
  H   H22       1.0  0.5344436984970822  0.07646348710010152  0.10426553461390592  1.0000
  C   C1        1.0  0.9129781799394597  0.21454313291711669  0.469220668965765  1.0000
  C   C2        1.0  0.08702182026259739  0.7854568675341389  0.5307793310650776  1.0000
  C   C3        1.0  0.8899728766016901  0.14705961246041305  0.5638787470673156  1.0000
  C   C4        1.0  0.11002712360036718  0.8529403879908425  0.43612125296352694  1.0000
  C   C5        1.0  0.02580380140459346  0.06236238062485788  0.4063058525905458  1.0000
  C   C6        1.0  0.9741961995249058  0.9376376182873313  0.5936941474436501  1.0000
  C   C7        1.0  0.8979872735409703  0.36936181177812333  0.8224657333647049  1.0000
  C   C8        1.0  0.10201272666108696  0.630638188673132  0.1775342666661377  1.0000
  C   C9        1.0  0.6852250521143963  0.38113793409134067  0.8669047611143202  1.0000
  C   C10       1.0  0.3147749480876607  0.6188620663599149  0.13309523891652236  1.0000
  C   C11       1.0  0.4895526433639419  0.5520951440793409  0.8554984846562684  1.0000
  C   C12       1.0  0.5104473554246324  0.44790485636786004  0.14450151537334716  1.0000
  C   C13       1.0  0.2952659846675027  0.5472366549131169  0.9060368491223396  1.0000
  C   C14       1.0  0.7047340155345546  0.4527633455381387  0.0939631509085029  1.0000
  C   C15       1.0  0.08332160303503604  0.7317149433765964  0.901114048798627  1.0000
  C   C16       1.0  0.9166783971670213  0.26828505707465927  0.09888595123221554  1.0000
  C   C17       1.0  0.4782198737435709  0.7355021534599951  0.7910771470950979  1.0000
  C   C18       1.0  0.5217801250450034  0.26449784698720563  0.2089228529345178  1.0000
  C   C19       1.0  0.4761043713845908  0.7360402376704893  0.695080927458402  1.0000
  C   C20       1.0  0.5238956288174664  0.2639597627807663  0.3049190725724405  1.0000
  C   C21       1.0  0.4502477864111806  0.9130202924356138  0.6361866921863085  1.0000
  C   C22       1.0  0.5497522137908766  0.08697970801564177  0.363813307844534  1.0000
  C   C23       1.0  0.4392635276066264  0.08419815315927039  0.75803840274507  1.0000
  C   C24       1.0  0.5607364725954307  0.9158018472919851  0.24196159728577252  1.0000
  C   C25       1.0  0.4625610181996421  0.9145827826094958  0.8222111759287982  1.0000
  C   C26       1.0  0.537438982002415  0.08541721784175989  0.17778882410204416  1.0000
  N   N1        1.0  0.42925831187917884  0.08598093948775631  0.6668273972340879  1.0000
  N   N2        1.0  0.5707416883228784  0.9140190609634993  0.33317260279675465  1.0000
  O   O1        1.0  0.6906025474188088  0.2159184456335282  0.921455637534132  1.0000
  O   O2        1.0  0.3093974535106903  0.7840815532786608  0.07854436250006408  1.0000
  O   O3        1.0  0.3018353906931447  0.3848830373555962  0.9568986842805498  1.0000
  O   O4        1.0  0.6981646102363543  0.6151169615565928  0.04310131575364621  1.0000
  F   F1        1.0  0.784479633982034  0.2851652783159148  0.6297685857075087  1.0000
  F   F2        1.0  0.21552036694746518  0.7148347205962743  0.3702314143266873  1.0000
  F   F3        1.0  0.05511481128760746  0.11657279915331635  0.31286512251250964  1.0000
  F   F4        1.0  0.9448851875009668  0.8834272012938843  0.6871348775171061  1.0000
  I   I1        1.0  0.7663631169535025  0.5298806458058366  0.4196419518997838  1.0000
  I   I2        1.0  0.23363688256251364  0.47011935310229774  0.5803580481331853  1.0000
