data_image0
_chemical_formula_structural       H60C116N8F12I12
_chemical_formula_sum              "H60 C116 N8 F12 I12"
_cell_length_a       9.268996788196896
_cell_length_b       10.324219586234744
_cell_length_c       27.407295327358778
_cell_angle_alpha    87.79630252349851
_cell_angle_beta     88.80951954562354
_cell_angle_gamma    74.42649802134608

_space_group_name_H-M_alt    "P 1"
_space_group_IT_number       1

loop_
  _space_group_symop_operation_xyz
  'x, y, z'

loop_
  _atom_site_type_symbol
  _atom_site_label
  _atom_site_symmetry_multiplicity
  _atom_site_fract_x
  _atom_site_fract_y
  _atom_site_fract_z
  _atom_site_occupancy
  H   H1        1.0  0.6572932016127921  0.17345016753934245  0.9532771919613746  1.0000
  H   H2        1.0  0.3427067984245971  0.8265498322191214  0.04672280778925117  1.0000
  H   H3        1.0  0.7827930594070464  0.3107389503218774  0.9016321958271354  1.0000
  H   H4        1.0  0.2172069405958734  0.6892610493834531  0.09836780428846197  1.0000
  H   H5        1.0  0.3529493700117561  0.4586512378838356  0.9858357769469461  1.0000
  H   H6        1.0  0.6470506299911637  0.5413487618214952  0.014164223168651222  1.0000
  H   H7        1.0  0.19771722618083146  0.29362483485575297  0.04529401346617848  1.0000
  H   H8        1.0  0.8022827738565579  0.706375164902711  0.9547059862844472  1.0000
  H   H9        1.0  0.15481295668304726  0.5736811036747471  0.8440627718350008  1.0000
  H   H10       1.0  0.8451870433198726  0.4263188960305834  0.1559372282805964  1.0000
  H   H11       1.0  0.24689077967930137  0.741217666279472  0.849490770101062  1.0000
  H   H12       1.0  0.753109220358088  0.2587823334789917  0.15050922964956368  1.0000
  H   H13       1.0  0.9588455413029698  0.460189911016193  0.8627381438536725  1.0000
  H   H14       1.0  0.041154458699950026  0.5398100886891375  0.13726185626192472  1.0000
  H   H15       1.0  0.9744017767257774  0.15040803819940557  0.06918749993422753  1.0000
  H   H16       1.0  0.0255982232771423  0.8495919615059251  0.9308125001813696  1.0000
  H   H17       1.0  0.5574139860423387  0.45938821348698555  0.9437662168954225  1.0000
  H   H18       1.0  0.44258601363198935  0.5406117872227391  0.05623378322676105  1.0000
  H   H19       1.0  0.37750022509567377  0.03199982656636303  0.06811439201401503  1.0000
  H   H20       1.0  0.622499774907246  0.9680001731389677  0.9318856081015823  1.0000
  H   H21       1.0  0.45604803734468197  0.8358748183707473  0.8234095162327557  1.0000
  H   H22       1.0  0.5439519626582376  0.16412518133458331  0.17659048388284157  1.0000
  H   H23       1.0  0.5048832009333495  0.1702733999332049  0.015881511242576647  1.0000
  H   H24       1.0  0.4951167987754483  0.8297266008296532  0.9841184885146353  1.0000
  H   H25       1.0  0.921103775106225  0.9521957531569816  0.08355499096313725  1.0000
  H   H26       1.0  0.07889622493116437  0.047804246601482366  0.9164450087874885  1.0000
  H   H27       1.0  0.753570631500106  0.56450942227111  0.9135144377689823  1.0000
  H   H28       1.0  0.24642936850281374  0.4354905774342206  0.08648556234661499  1.0000
  H   H29       1.0  0.7754497181383686  0.8226920635777637  0.13287773244412354  1.0000
  H   H30       1.0  0.22455028153595946  0.1773079371319609  0.8671222676780601  1.0000
  H   H31       1.0  0.026814275167306417  0.8912481030228712  0.4421000507725239  1.0000
  H   H32       1.0  0.9731857245070217  0.10875189768685353  0.5578999493496596  1.0000
  H   H33       1.0  0.016615515749723638  0.695161431471531  0.4928377915782346  1.0000
  H   H34       1.0  0.9833844842876657  0.30483856828693306  0.5071622081723912  1.0000
  H   H35       1.0  0.7774117694396562  0.8498122877216105  0.4305358347518659  1.0000
  H   H36       1.0  0.22258823163347405  0.1501877120082734  0.5694641653733588  1.0000
  H   H37       1.0  0.8559712916104015  0.5051422036544166  0.6182779911409825  1.0000
  H   H38       1.0  0.14402870842698803  0.4948577961040471  0.38172200860964334  1.0000
  H   H39       1.0  0.8201476788148201  0.9991507133895302  0.38463147198903214  1.0000
  H   H40       1.0  0.1798523212225694  0.0008492863689334743  0.6153685277615937  1.0000
  H   H41       1.0  0.47151213459812175  0.9690915492211206  0.3991816703910457  1.0000
  H   H42       1.0  0.528487865404798  0.030908450484209916  0.6008183297245515  1.0000
  H   H43       1.0  0.47832059758096557  0.48282650308835706  0.5378797646686542  1.0000
  H   H44       1.0  0.5216794020933626  0.5171734976213676  0.4621202354535294  1.0000
  H   H45       1.0  0.22317849902500045  0.5802353975467178  0.5065326229084127  1.0000
  H   H46       1.0  0.776821500977919  0.41976460215861267  0.4934673772071846  1.0000
  H   H47       1.0  0.1424330013046836  0.9320588880279704  0.5088971869594744  1.0000
  H   H48       1.0  0.8575669997684464  0.06794111170191365  0.49110281316575033  1.0000
  H   H49       1.0  0.2788805041170344  0.1492730144701706  0.37604843401669635  1.0000
  H   H50       1.0  0.7211194955572936  0.850726986239554  0.6239515661054871  1.0000
  H   H51       1.0  0.061083267833080754  0.2479529600003304  0.32273564287011836  1.0000
  H   H52       1.0  0.9389167322043085  0.7520470397581336  0.6772643568805075  1.0000
  H   H53       1.0  0.33913499301193284  0.7984614678378954  0.5639169608775813  1.0000
  H   H54       1.0  0.6608650069909868  0.20153853186743512  0.43608303923801606  1.0000
  H   H55       1.0  0.5964662406274709  0.6249431975552453  0.599439564085395  1.0000
  H   H56       1.0  0.40353375940991837  0.37505680220321874  0.4005604356652308  1.0000
  H   H57       1.0  0.31782617149834713  0.36446851782390416  0.6694166211057303  1.0000
  H   H58       1.0  0.6821738285045726  0.6355314818814265  0.3305833790098671  1.0000
  H   H59       1.0  0.056729251023018276  0.4624306692574365  0.645442572440785  1.0000
  H   H60       1.0  0.9432707486513097  0.5375693314522879  0.3545574276813986  1.0000
  C   C1        1.0  0.2674052598020801  0.5824119806336021  0.21309946297204824  1.0000
  C   C2        1.0  0.7325947402353092  0.4175880191248619  0.7869005367785775  1.0000
  C   C3        1.0  0.4986052285551015  0.4036828253202723  0.2648238233463652  1.0000
  C   C4        1.0  0.5013947714478182  0.5963171743850584  0.7351761767692322  1.0000
  C   C5        1.0  0.3513552717020847  0.39454494841391813  0.2688036965567847  1.0000
  C   C6        1.0  0.6486447279722434  0.6054550522958063  0.731196303565399  1.0000
  C   C7        1.0  0.5235220119414135  0.5060974484470256  0.2339417931765363  1.0000
  C   C8        1.0  0.47647798806150615  0.4939025512583049  0.7660582069390611  1.0000
  C   C9        1.0  0.23324479483163146  0.4828705824739973  0.24355100373083105  1.0000
  C   C10       1.0  0.7667552048771663  0.5171294182888606  0.756448996026381  1.0000
  C   C11       1.0  0.41185468868122993  0.596774202291826  0.20726995989976954  1.0000
  C   C12       1.0  0.5881453113216897  0.4032257974135047  0.7927300402158278  1.0000
  C   C13       1.0  0.778542795989514  0.06512573708595483  0.736553431850848  1.0000
  C   C14       1.0  0.22145720401340563  0.9348742626193759  0.2634465682647494  1.0000
  C   C15       1.0  0.8217225712641903  0.15636272300887388  0.7044385088442172  1.0000
  C   C16       1.0  0.17827742873872932  0.8436372766964568  0.29556149127138004  1.0000
  C   C17       1.0  0.01417616420977965  0.008355252195618529  0.7759422159324327  1.0000
  C   C18       1.0  0.98582383579314  0.9916447475097121  0.2240577841831646  1.0000
  C   C19       1.0  0.06699967488960025  0.09373916755931819  0.7436292563957172  1.0000
  C   C20       1.0  0.9330003251133193  0.9062608321460123  0.2563707437198801  1.0000
  C   C21       1.0  0.870709156051196  0.9907705229913158  0.7731555530383878  1.0000
  C   C22       1.0  0.1292908439861933  0.009229476767148114  0.22684444671223802  1.0000
  C   C23       1.0  0.9680825269671739  0.1658576005914016  0.7082555499373715  1.0000
  C   C24       1.0  0.031917473035745825  0.8341423991139291  0.29174445017822576  1.0000
  C   C25       1.0  0.9445877057305443  0.31687571740323567  0.956759284928865  1.0000
  C   C26       1.0  0.055412294306845175  0.6831242823552284  0.04324071482176085  1.0000
  C   C27       1.0  0.3828932984633524  0.5911985571380491  0.8995559022830988  1.0000
  C   C28       1.0  0.6171067012454454  0.4088014436248088  0.10044409747411324  1.0000
  C   C29       1.0  0.7528754057072662  0.2011743936925324  0.9679452174364013  1.0000
  C   C30       1.0  0.24712459429565356  0.7988256060127982  0.032054782679196064  1.0000
  C   C31       1.0  0.8233959901636408  0.2804652900777112  0.9384690077500121  1.0000
  C   C32       1.0  0.17660400987374852  0.7195347096807527  0.06153099200061369  1.0000
  C   C33       1.0  0.2655772953734462  0.5254721089551883  0.9140050350822757  1.0000
  C   C34       1.0  0.7344227046294735  0.47452789075014234  0.08599496503332148  1.0000
  C   C35       1.0  0.8055041370193413  0.15378160099496171  0.014898025244730042  1.0000
  C   C36       1.0  0.19449586298357838  0.8462183987103689  0.9851019748708673  1.0000
  C   C37       1.0  0.26699439627330873  0.4586426826087984  0.959311890852515  1.0000
  C   C38       1.0  0.7330056037296109  0.5413573170965321  0.04068810926308228  1.0000
  C   C39       1.0  0.03944947251775342  0.3972578163520996  0.9360111677388117  1.0000
  C   C40       1.0  0.9605505274851663  0.6027421833532312  0.06398883237678567  1.0000
  C   C41       1.0  0.7258908079302798  0.07294760204220696  0.04483195635553042  1.0000
  C   C42       1.0  0.27410919207263984  0.9270523976631236  0.9551680437600669  1.0000
  C   C43       1.0  0.15467004300450352  0.3937673177017297  0.971065478674358  1.0000
  C   C44       1.0  0.8453299567042941  0.6062326830611283  0.028934521082854048  1.0000
  C   C45       1.0  0.12878197445367398  0.3179246974504373  0.012949054900840386  1.0000
  C   C46       1.0  0.8712180255492457  0.6820753022548934  0.9870509452147569  1.0000
  C   C47       1.0  0.15208716992437216  0.5259935177954674  0.88002343616374  1.0000
  C   C48       1.0  0.8479128300785476  0.4740064819098633  0.11997656395185718  1.0000
  C   C49       1.0  0.3573795311937748  0.698402539942868  0.8648802408217553  1.0000
  C   C50       1.0  0.6426204688436146  0.30159745981559605  0.13511975892887046  1.0000
  C   C51       1.0  0.0008881695777544977  0.2685987701651517  0.004330938335191851  1.0000
  C   C52       1.0  0.9991118304251652  0.7314012295401789  0.9956690617804055  1.0000
  C   C53       1.0  0.04100177269808553  0.4615204503457944  0.8904003944742926  1.0000
  C   C54       1.0  0.9589982270107121  0.5384795504170635  0.10959960528291943  1.0000
  C   C55       1.0  0.9327750248008881  0.1859593896793785  0.032818685345423156  1.0000
  C   C56       1.0  0.06722497520203144  0.814040610025952  0.9671813147701741  1.0000
  C   C57       1.0  0.5283993721305597  0.5449554206917878  0.9179690321406372  1.0000
  C   C58       1.0  0.4716006279068297  0.45504457906667606  0.08203096760998849  1.0000
  C   C59       1.0  0.49863290225957835  0.015999655243541508  0.069974854567636  1.0000
  C   C60       1.0  0.5013670977433413  0.9840003444617891  0.9300251455479612  1.0000
  C   C61       1.0  0.4745206193236602  0.7520015226191017  0.8501928868663065  1.0000
  C   C62       1.0  0.5254793803506679  0.24799847809062278  0.1498071132558771  1.0000
  C   C63       1.0  0.5705527038993601  0.09291958764328333  0.04072928362405643  1.0000
  C   C64       1.0  0.42944729610355953  0.9070804120620474  0.9592707164915409  1.0000
  C   C65       1.0  0.800515015996504  0.9739468320653807  0.07894568428357518  1.0000
  C   C66       1.0  0.19948498367782416  0.026053168644343913  0.9210543158386083  1.0000
  C   C67       1.0  0.6390185207362551  0.6032564199115704  0.9006917322661553  1.0000
  C   C68       1.0  0.36098147926666463  0.39674357979376024  0.09930826784944188  1.0000
  C   C69       1.0  0.719814987569469  0.9007980385300322  0.1063454743411864  1.0000
  C   C70       1.0  0.28018501210485913  0.09920196217969249  0.8936545257809972  1.0000
  C   C71       1.0  0.6573027227505949  0.7301487277921829  0.535529679591024  1.0000
  C   C72       1.0  0.3426972772523246  0.26985127191314784  0.46447032052457327  1.0000
  C   C73       1.0  0.038137288715515784  0.9723762310503749  0.41697524165266486  1.0000
  C   C74       1.0  0.9618627112874039  0.02762376865495574  0.5830247584629324  1.0000
  C   C75       1.0  0.7777828795061148  0.7456335866320798  0.5041758559091144  1.0000
  C   C76       1.0  0.22221712123842383  0.25436641410219824  0.4958241442226965  1.0000
  C   C77       1.0  0.9255522210116857  0.6806148255558877  0.5162807192537577  1.0000
  C   C78       1.0  0.07444777866264257  0.31938517515383685  0.4837192808684259  1.0000
  C   C79       1.0  0.293253349097269  0.9552449671552757  0.4496159623912281  1.0000
  C   C80       1.0  0.7067466506115286  0.044755033607582415  0.5503840373659838  1.0000
  C   C81       1.0  0.7147500982149616  0.8295086677264009  0.46248726623384606  1.0000
  C   C82       1.0  0.28524990289263824  0.17049133205661673  0.5375127335264069  1.0000
  C   C83       1.0  0.8353608316569623  0.5748333570718089  0.5867978762760945  1.0000
  C   C84       1.0  0.16463916834595746  0.4251666426335217  0.41320212383950283  1.0000
  C   C85       1.0  0.17038872496474244  0.01478872771663201  0.4155625032465031  1.0000
  C   C86       1.0  0.8296112747095856  0.9852112729930925  0.5844374968756805  1.0000
  C   C87       1.0  0.5184232184104339  0.809500415790671  0.5135339242056918  1.0000
  C   C88       1.0  0.4815767815924858  0.1904995839146595  0.48646607590990554  1.0000
  C   C89       1.0  0.9231291211818575  0.03134810870273496  0.38486429861043675  1.0000
  C   C90       1.0  0.07687087849247079  0.9686518920069896  0.6151357015117468  1.0000
  C   C91       1.0  0.4432075788141104  0.9362710523987394  0.43556274157852043  1.0000
  C   C92       1.0  0.5567924211888093  0.06372894730659136  0.5644372585370768  1.0000
  C   C93       1.0  0.38114325017350037  0.48031187365548766  0.5607029009121519  1.0000
  C   C94       1.0  0.6188567495008277  0.5196881270542371  0.4392970992100316  1.0000
  C   C95       1.0  0.5572794380261724  0.8648674058512846  0.4672960831131965  1.0000
  C   C96       1.0  0.4427205616481558  0.13513259485843987  0.532703917008987  1.0000
  C   C97       1.0  0.9566890941186001  0.5956280867529951  0.5583318468514348  1.0000
  C   C98       1.0  0.043310905555727926  0.4043719139567295  0.4416681532707489  1.0000
  C   C99       1.0  0.2370054155024223  0.5366074006440386  0.5435015691392474  1.0000
  C   C100      1.0  0.7629945845004973  0.4633925990612921  0.4564984309763499  1.0000
  C   C101      1.0  0.2591087766849137  0.9120138647734436  0.49711962053785097  1.0000
  C   C102      1.0  0.7408912233524757  0.0879861349850204  0.5028803792127747  1.0000
  C   C103      1.0  0.17963263414413685  0.11249884707565308  0.37959449196177936  1.0000
  C   C104      1.0  0.8203673655646612  0.887501153687205  0.6204055077954327  1.0000
  C   C105      1.0  0.11263598560104778  0.5330976210250414  0.5733828537178385  1.0000
  C   C106      1.0  0.8873640140732804  0.4669023796846831  0.42661714640434506  1.0000
  C   C107      1.0  0.05768745316305554  0.16814462437887343  0.34964233331111866  1.0000
  C   C108      1.0  0.9423125479100745  0.8318553753510108  0.6503576668141059  1.0000
  C   C109      1.0  0.3702457075228088  0.8355667405964988  0.5284896253117219  1.0000
  C   C110      1.0  0.6297542924801109  0.16443325910883183  0.47151037480387537  1.0000
  C   C111      1.0  0.6867860619304695  0.6422076259863192  0.5760659549996439  1.0000
  C   C112      1.0  0.3132139377438583  0.3577923747234054  0.4239340451225398  1.0000
  C   C113      1.0  0.2925845273450597  0.4146210046944514  0.6335530079268885  1.0000
  C   C114      1.0  0.7074154726923296  0.5853789950640126  0.36644699182373713  1.0000
  C   C115      1.0  0.1449459312828971  0.4688563311741661  0.6194902116768215  1.0000
  C   C116      1.0  0.8550540687544923  0.5311436685842978  0.3805097880738043  1.0000
  N   N1        1.0  0.6142348477921229  0.7056651378557102  0.8674620976422956  1.0000
  N   N2        1.0  0.38576515221079677  0.2943348618496205  0.13253790247330166  1.0000
  N   N3        1.0  0.5711446892159401  0.9208548557350539  0.10219148757038779  1.0000
  N   N4        1.0  0.4288553107869797  0.07914514397027667  0.8978085125452095  1.0000
  N   N5        1.0  0.4104629579359315  0.4201490286852788  0.6050684600038669  1.0000
  N   N6        1.0  0.5895370417383966  0.5798509720244457  0.39493154011831666  1.0000
  N   N7        1.0  0.9302486678515829  0.1297613944911342  0.352271218669043  1.0000
  N   N8        1.0  0.06975133182274516  0.8702386062185903  0.6477287814531406  1.0000
  F   F1        1.0  0.665634937662546  0.5194438974229663  0.2297430738235109  1.0000
  F   F2        1.0  0.3343650634105842  0.48055610230691775  0.7702569263017137  1.0000
  F   F3        1.0  0.1542974691583783  0.6690452828067707  0.18797545529916954  1.0000
  F   F4        1.0  0.8457025308445413  0.3309547168985599  0.8120245448164277  1.0000
  F   F5        1.0  0.32086928904137424  0.2974709189354321  0.29891080002861165  1.0000
  F   F6        1.0  0.6791307109960151  0.7025290808230319  0.7010891997220142  1.0000
  F   F7        1.0  0.6392359098794433  0.04792186608477087  0.7319186058194793  1.0000
  F   F8        1.0  0.36076409012347627  0.9520781336205597  0.2680813942961181  1.0000
  F   F9        1.0  0.10621411954124288  0.9405752695744765  0.8118804666096076  1.0000
  F   F10       1.0  0.8937858815663571  0.05942473020854103  0.18811953315064553  1.0000
  F   F11       1.0  0.017039699706904835  0.24810954139678568  0.6758571176516313  1.0000
  F   F12       1.0  0.9829603003304844  0.7518904583616783  0.3241428820989945  1.0000
  I   I1        1.0  0.4650132766549981  0.7473753990353004  0.16074037747435904  1.0000
  I   I2        1.0  0.5349867233823912  0.2526246007231637  0.8392596222762667  1.0000
  I   I3        1.0  0.012470221569022867  0.47038328141017915  0.25099325726053584  1.0000
  I   I4        1.0  0.9875297781053051  0.5296167192995455  0.7490067428616477  1.0000
  I   I5        1.0  0.6819362090634435  0.2747003999956198  0.30350778733091527  1.0000
  I   I6        1.0  0.3180637906108846  0.7252996007141047  0.6964922127912684  1.0000
  I   I7        1.0  0.6636590223266414  0.27896815523805885  0.6555555553886264  1.0000
  I   I8        1.0  0.3363409773476867  0.7210318454716658  0.3444444447335573  1.0000
  I   I9        1.0  0.7881806177858441  0.8612970753233864  0.8211197874215437  1.0000
  I   I10       1.0  0.21181938225154515  0.13870292443507765  0.1788802123290821  1.0000
  I   I11       1.0  0.2834594799003028  0.11612246039105707  0.7493320892164728  1.0000
  I   I12       1.0  0.7165405201026168  0.8838775393142735  0.25066791089912455  1.0000
