data_image0
_chemical_formula_structural       H68C44N8Cl6
_chemical_formula_sum              "H68 C44 N8 Cl6"
_cell_length_a       5.723873070489127
_cell_length_b       10.322467566891683
_cell_length_c       19.194048032818454
_cell_angle_alpha    90.0
_cell_angle_beta     98.79204352307472
_cell_angle_gamma    90.0

_space_group_name_H-M_alt    "P 1"
_space_group_IT_number       1

loop_
  _space_group_symop_operation_xyz
  'x, y, z'

loop_
  _atom_site_type_symbol
  _atom_site_label
  _atom_site_symmetry_multiplicity
  _atom_site_fract_x
  _atom_site_fract_y
  _atom_site_fract_z
  _atom_site_occupancy
  H   H1        1.0  0.342583531866454  0.41300072801136806  0.299676879048837  1.0000
  H   H2        1.0  0.6574164688247192  0.9130007276775486  0.2003231212004418  1.0000
  H   H3        1.0  0.6574164696000468  0.5869992722897535  0.7003231211799239  1.0000
  H   H4        1.0  0.3425835308934952  0.08699927262357303  0.7996768790259076  1.0000
  H   H5        1.0  0.7391938508377959  0.3645078083914974  0.30506471959555476  1.0000
  H   H6        1.0  0.2608061481050906  0.8645078080576779  0.19493528065131244  1.0000
  H   H7        1.0  0.26080614888041836  0.6354921919096241  0.6949352806307945  1.0000
  H   H8        1.0  0.7391938516131237  0.13549219127468304  0.8050647195750369  1.0000
  H   H9        1.0  0.8261523653189901  0.5023382109362661  0.35908449442259605  1.0000
  H   H10       1.0  0.173847635372183  0.002338211270085676  0.1409155058266828  1.0000
  H   H11       1.0  0.1738476361475107  0.4976617893648554  0.6409155058061649  1.0000
  H   H12       1.0  0.8261523643460312  0.9976617890310359  0.8590844943996665  1.0000
  H   H13       1.0  0.6971870719261072  0.5254292168857064  0.2687027831630577  1.0000
  H   H14       1.0  0.30281292850284863  0.025429217219525943  0.23129721655903712  1.0000
  H   H15       1.0  0.3028129292781763  0.4745707834154151  0.7312972165385191  1.0000
  H   H16       1.0  0.6971870709531482  0.9745707830815956  0.7687027831401281  1.0000
  H   H17       1.0  0.16536292375300998  0.5917913290028844  0.3372252132973194  1.0000
  H   H18       1.0  0.8346370769381632  0.091791329336704  0.16277478695195938  1.0000
  H   H19       1.0  0.8346370759652042  0.40820867129823707  0.6627747869290298  1.0000
  H   H20       1.0  0.1653629227800511  0.9082086709644176  0.8372252132743899  1.0000
  H   H21       1.0  0.3766315544112582  0.6459816528159764  0.284787522721455  1.0000
  H   H22       1.0  0.6233684442694111  0.14598165314979597  0.21521247699822818  1.0000
  H   H23       1.0  0.6233684453069561  0.3540183465163845  0.7152124775048941  1.0000
  H   H24       1.0  0.3766315551865859  0.8540183471513256  0.7847875227009371  1.0000
  H   H25       1.0  0.6547256715422236  0.704751803079832  0.39474017252473587  1.0000
  H   H26       1.0  0.3452743291489495  0.20475180244489097  0.1052598277245429  1.0000
  H   H27       1.0  0.34527432992427726  0.29524819722128953  0.605259827704025  1.0000
  H   H28       1.0  0.6547256705692648  0.79524819688747  0.8947401725018065  1.0000
  H   H29       1.0  0.4460722750575987  0.6473122338917701  0.44707445246004085  1.0000
  H   H30       1.0  0.5539277236230705  0.14731223325682904  0.052925547259642367  1.0000
  H   H31       1.0  0.5539277243983982  0.35268776640935146  0.5529255472391245  1.0000
  H   H32       1.0  0.4460722758329264  0.852687766075532  0.9470744524395228  1.0000
  H   H33       1.0  0.35676464544532527  0.8687119927372396  0.33897755970385407  1.0000
  H   H34       1.0  0.643235355245848  0.3687119930710593  0.16102244054542475  1.0000
  H   H35       1.0  0.6432353542728891  0.13128800756388184  0.6610224405224953  1.0000
  H   H36       1.0  0.3567646462206529  0.6312880072300623  0.8389775596833361  1.0000
  H   H37       1.0  0.14609542380785887  0.8089513874359866  0.38732803883732286  1.0000
  H   H38       1.0  0.8539045748728104  0.3089513877698062  0.11267196088236034  1.0000
  H   H39       1.0  0.853904575648138  0.19104861189637426  0.6126719608618424  1.0000
  H   H40       1.0  0.1460954245831865  0.6910486125313153  0.8873280388168048  1.0000
  H   H41       1.0  0.31053567137315935  0.08973317029068846  0.6584945488727499  1.0000
  H   H42       1.0  0.6894643291203827  0.589733169956869  0.8415054513330815  1.0000
  H   H43       1.0  0.6894643283450549  0.9102668300104331  0.34150545135359944  1.0000
  H   H44       1.0  0.3105356720839008  0.4102668303442526  0.15849454836849536  1.0000
  H   H45       1.0  0.008195758211372453  0.92936104161466  0.6742161937800784  1.0000
  H   H46       1.0  0.9918042422821696  0.42936104194847957  0.8257838064257529  1.0000
  H   H47       1.0  0.9918042432551284  0.07063895868646146  0.32578380644868243  1.0000
  H   H48       1.0  0.008195757436044759  0.5706389583526419  0.17421619380059636  1.0000
  H   H49       1.0  0.9040318271454615  0.7550861622466737  0.5849227108824726  1.0000
  H   H50       1.0  0.09596817308586299  0.2550861625804932  0.9150772887961747  1.0000
  H   H51       1.0  0.09596817231053532  0.24491383708568726  0.41507728881669265  1.0000
  H   H52       1.0  0.9040318281184204  0.7449138377206284  0.08492271090540217  1.0000
  H   H53       1.0  0.09038980341358305  0.7444468205109582  0.4799376956623849  1.0000
  H   H54       1.0  0.9096101972775902  0.24444681987601713  0.02006230458689389  1.0000
  H   H55       1.0  0.9096101963046312  0.25555317979016334  0.5200623045639643  1.0000
  H   H56       1.0  0.0903898024406242  0.7555531794563438  0.9799376956394554  1.0000
  H   H57       1.0  0.29166329598583024  0.4218932393615046  0.42548954473450945  1.0000
  H   H58       1.0  0.7083367047053429  0.921893239027685  0.07451045551476938  1.0000
  H   H59       1.0  0.7083367037323841  0.578106760939617  0.5745104554918399  1.0000
  H   H60       1.0  0.29166329676115793  0.07810676030467592  0.9254895447139915  1.0000
  H   H61       1.0  0.6099206851314022  0.4336116021673103  0.44301662795169594  1.0000
  H   H62       1.0  0.39007931381148436  0.9336116018334908  0.05698337229517128  1.0000
  H   H63       1.0  0.39007931458681205  0.5663883981338113  0.5569833722746534  1.0000
  H   H64       1.0  0.6099206859067299  0.06638839846763075  0.9430166279311779  1.0000
  H   H65       1.0  0.47287268764888024  0.2975613640920274  0.39461085089835607  1.0000
  H   H66       1.0  0.5271273112940063  0.7975613637582077  0.10538914934851112  1.0000
  H   H67       1.0  0.527127312069334  0.7024386362090942  0.6053891493279933  1.0000
  H   H68       1.0  0.47287268842420804  0.2024386355741531  0.8946108508778382  1.0000
  C   C1        1.0  0.6967723157669758  0.46531995173382384  0.31564536439094476  1.0000
  C   C2        1.0  0.3032276846619799  0.9653199514000044  0.18435463533115004  1.0000
  C   C3        1.0  0.3032276854373077  0.5346800485672977  0.6843546353106321  1.0000
  C   C4        1.0  0.6967723147940169  0.0346800479323566  0.8156453643680152  1.0000
  C   C5        1.0  0.3550925980467034  0.6034738592911645  0.3358717483703743  1.0000
  C   C6        1.0  0.6449074026444698  0.10347385865622338  0.1641282518789045  1.0000
  C   C7        1.0  0.6449074034197976  0.39652614100995703  0.6641282518583866  1.0000
  C   C8        1.0  0.35509259707374446  0.8965261406761375  0.8358717483474448  1.0000
  C   C9        1.0  0.4652041809818504  0.6906594972375184  0.3960159533449064  1.0000
  C   C10       1.0  0.5347958176988188  0.190659497571338  0.10398404637477682  1.0000
  C   C11       1.0  0.5347958184741466  0.3093405030636031  0.6039840463542588  1.0000
  C   C12       1.0  0.4652041817571782  0.8093405027297835  0.8960159533243885  1.0000
  C   C13       1.0  0.336783299326782  0.8213213589735624  0.38877866140680095  1.0000
  C   C14       1.0  0.6632167011021738  0.32132135833862147  0.11122133831529389  1.0000
  C   C15       1.0  0.663216700129215  0.17867864132755903  0.6112213382923644  1.0000
  C   C16       1.0  0.3367832983538232  0.6786786409937394  0.8887786613838715  1.0000
  C   C17       1.0  0.31622506036009984  0.9130664813353442  0.5064902933912596  1.0000
  C   C18       1.0  0.6837749383851555  0.413066480700403  0.9935097068121599  1.0000
  C   C19       1.0  0.6837749393581144  0.08693351896577738  0.49350970683508955  1.0000
  C   C20       1.0  0.3162250613330588  0.5869335196007185  0.006490293414189269  1.0000
  C   C21       1.0  0.60958337360732  0.993349414135059  0.4396127952742677  1.0000
  C   C22       1.0  0.3904166270838531  0.4933494144688785  0.06038720497501101  1.0000
  C   C23       1.0  0.3904166278591808  0.006650585197302018  0.560387204954493  1.0000
  C   C24       1.0  0.6095833726343611  0.5066505858322431  0.9396127952513381  1.0000
  C   C25       1.0  0.2717361411771616  0.013443907583212482  0.6192112805079152  1.0000
  C   C26       1.0  0.7282638575680939  0.5134439072493929  0.8807887196955047  1.0000
  C   C27       1.0  0.7282638585410528  0.986556092717909  0.38078871971843414  1.0000
  C   C28       1.0  0.27173614215012043  0.4865560930517286  0.11921128053084468  1.0000
  C   C29       1.0  0.095584203088749  0.9250752059156556  0.6276049655860783  1.0000
  C   C30       1.0  0.9044157953942891  0.4250752052807146  0.8723950340901574  1.0000
  C   C31       1.0  0.904415796367248  0.07492479438546593  0.37239503411308705  1.0000
  C   C32       1.0  0.09558420406170787  0.5749247940516463  0.1276049656090078  1.0000
  C   C33       1.0  0.033335061695495535  0.8286037669358901  0.576963437470972  1.0000
  C   C34       1.0  0.9666649385358291  0.3286037672697096  0.9230365622076754  1.0000
  C   C35       1.0  0.9666649395087881  0.17139623239647087  0.4230365622306049  1.0000
  C   C36       1.0  0.033335060920167775  0.6713962330314119  0.07696343749148989  1.0000
  C   C37       1.0  0.13857964816648868  0.8239261014758532  0.516591110563045  1.0000
  C   C38       1.0  0.8614203523270533  0.32392610180967274  0.9834088896427864  1.0000
  C   C39       1.0  0.8614203515517255  0.17607389882526833  0.48340888966330425  1.0000
  C   C40       1.0  0.13857964739116096  0.6760738984914487  0.016591110583562885  1.0000
  C   C41       1.0  0.45722936439106493  0.40110734310079005  0.405375287465252  1.0000
  C   C42       1.0  0.5427706360378909  0.9011073427669705  0.0946247122568428  1.0000
  C   C43       1.0  0.5427706368132186  0.5988926572003315  0.5946247122363248  1.0000
  C   C44       1.0  0.45722936341810616  0.09889265656539038  0.9053752874423225  1.0000
  N   N1        1.0  0.45782528232178554  0.4699320766633998  0.3371962468256322  1.0000
  N   N2        1.0  0.5421747183693876  0.9699320772983407  0.16280375342364656  1.0000
  N   N3        1.0  0.5421747173964288  0.5300679226689612  0.6628037534007171  1.0000
  N   N4        1.0  0.45782528309711334  0.030067923002780685  0.8371962468051144  1.0000
  N   N5        1.0  0.4225864012713032  0.9113909962938147  0.4463615486147503  1.0000
  N   N6        1.0  0.5774135991576527  0.4113909956588736  0.05363845110734453  1.0000
  N   N7        1.0  0.5774136001951977  0.08860900400730684  0.5536384516140106  1.0000
  N   N8        1.0  0.4225864002983443  0.5886090036734873  0.9463615485918208  1.0000
  Cl  Cl1       1.0  0.16385216991746793  0.27450819308829844  0.24800580102144032  1.0000
  Cl  Cl2       1.0  0.8361478290254186  0.7745081927544789  0.2519941992254269  1.0000
  Cl  Cl3       1.0  0.8361478298007464  0.7254918072128231  0.751994199204909  1.0000
  Cl  Cl4       1.0  0.16385217069279567  0.22549180657788204  0.7480058010009224  1.0000
  Cl  Cl5       1.0  7.753277144185429e-10  0.4999999996661805  0.4999999999794821  1.0000
  Cl  Cl6       1.0  0.0  0.0  0.0  1.0000
