data_image0
_chemical_formula_structural       H24C44N4I4
_chemical_formula_sum              "H24 C44 N4 I4"
_cell_length_a       7.425996040084998
_cell_length_b       8.237503824788343
_cell_length_c       17.059492808933296
_cell_angle_alpha    94.47268507312155
_cell_angle_beta     96.6794540279725
_cell_angle_gamma    104.70738840370178

_space_group_name_H-M_alt    "P 1"
_space_group_IT_number       1

loop_
  _space_group_symop_operation_xyz
  'x, y, z'

loop_
  _atom_site_type_symbol
  _atom_site_label
  _atom_site_symmetry_multiplicity
  _atom_site_fract_x
  _atom_site_fract_y
  _atom_site_fract_z
  _atom_site_occupancy
  H   H1        1.0  0.5439267825316281  0.13178679306504462  0.15989449526069216  1.0000
  H   H2        1.0  0.45607321654885075  0.8682132067431766  0.8401055048051619  1.0000
  H   H3        1.0  0.8784516857183958  0.2910859557450008  0.19874786878962872  1.0000
  H   H4        1.0  0.12154831470433006  0.7089140440479917  0.801252131276279  1.0000
  H   H5        1.0  0.09755280416879716  0.16249452294397143  0.2800368337958641  1.0000
  H   H6        1.0  0.9024471947136226  0.8375054767240054  0.7199631656760691  1.0000
  H   H7        1.0  0.9744339337917756  0.88198043601915  0.3261633309637061  1.0000
  H   H8        1.0  0.025566066432891155  0.11801956363359829  0.6738366685082811  1.0000
  H   H9        1.0  0.4831348980107705  0.5077681607352441  0.16818008697400066  1.0000
  H   H10       1.0  0.5168651010697084  0.49223183907297724  0.8318199130918534  1.0000
  H   H11       1.0  0.16772415862443088  0.30189184968624855  0.13215996408500355  1.0000
  H   H12       1.0  0.832275840456048  0.6981081501219727  0.8678400359808506  1.0000
  H   H13       1.0  0.38703698349011095  0.07970371156268409  0.9390590592584273  1.0000
  H   H14       1.0  0.6129630155903678  0.9202962882455372  0.06094094080742672  1.0000
  H   H15       1.0  0.6941955828986379  0.2936562143464078  0.9831106360183851  1.0000
  H   H16       1.0  0.30580441752408793  0.7063437854465849  0.01688936404752288  1.0000
  H   H17       1.0  0.2715352294527664  0.14715421339905913  0.5454900457063334  1.0000
  H   H18       1.0  0.7284647696277124  0.8528457864091621  0.4545099543595207  1.0000
  H   H19       1.0  0.10468705090583377  0.8662288476804476  0.5824823407343319  1.0000
  H   H20       1.0  0.895312948174645  0.13377115212777357  0.41751765933152213  1.0000
  H   H21       1.0  0.21302050344853557  0.6402729322405141  0.3612640410923892  1.0000
  H   H22       1.0  0.7869794956319432  0.3597270675677071  0.6387359589734649  1.0000
  H   H23       1.0  0.37482443903194185  0.9293085279332302  0.3340026013981944  1.0000
  H   H24       1.0  0.6251755600485369  0.0706914718749911  0.6659973986676598  1.0000
  C   C1        1.0  0.21586334710652616  0.7477748368600062  0.1708456492877768  1.0000
  C   C2        1.0  0.7841366533161996  0.2522251629329863  0.829154350778131  1.0000
  C   C3        1.0  0.3792121140440976  0.8260361978138272  0.1944635710491138  1.0000
  C   C4        1.0  0.6207878850363812  0.17396380199439412  0.8055364290167403  1.0000
  C   C5        1.0  0.568876074744223  0.916973818549407  0.21992299555504183  1.0000
  C   C6        1.0  0.4311239256785029  0.08302618124358573  0.780077004510866  1.0000
  C   C7        1.0  0.6399349320057309  0.07773264914141519  0.19580373931159248  1.0000
  C   C8        1.0  0.360065068416995  0.9222673506515775  0.8041962607543154  1.0000
  C   C9        1.0  0.827702263079436  0.1660066099333982  0.21748944484851845  1.0000
  C   C10       1.0  0.1722977373432899  0.8339933898595945  0.7825105552173894  1.0000
  C   C11       1.0  0.9497078667488518  0.09458682826454617  0.2633719079222625  1.0000
  C   C12       1.0  0.05029213367387391  0.9054131715284465  0.7366280921436453  1.0000
  C   C13       1.0  0.8816016454790452  0.9376502090990432  0.2894078279834115  1.0000
  C   C14       1.0  0.11839835531364769  0.06234979194906406  0.710592172083021  1.0000
  C   C15       1.0  0.6913157797836321  0.847467820933459  0.2697327531799649  1.0000
  C   C16       1.0  0.3086842206390937  0.15253217885953368  0.7302672468859429  1.0000
  C   C17       1.0  0.6235354849244638  0.6924212266465857  0.3007428023131204  1.0000
  C   C18       1.0  0.3764645141560152  0.3075787731616355  0.6992571977527337  1.0000
  C   C19       1.0  0.5680676181285239  0.5624452010705349  0.331207235541157  1.0000
  C   C20       1.0  0.4319323820961429  0.4375547985822134  0.6687927639308301  1.0000
  C   C21       1.0  0.45656729806136365  0.41112376621355257  0.11761553165159044  1.0000
  C   C22       1.0  0.5434327008210562  0.5888762334544244  0.8823844678203429  1.0000
  C   C23       1.0  0.281031434502426  0.29589291560110387  0.09793111479503762  1.0000
  C   C24       1.0  0.7189685659202999  0.7041070841918888  0.9020688852708703  1.0000
  C   C25       1.0  0.25182662148430884  0.17167582839558496  0.03276717994515032  1.0000
  C   C26       1.0  0.748173378938417  0.8283241713974077  0.9672328201207575  1.0000
  C   C27       1.0  0.4036965056625341  0.17160156052968317  0.9904732817799848  1.0000
  C   C28       1.0  0.5963034947601916  0.8283984392633095  0.00952671828592303  1.0000
  C   C29       1.0  0.5743256062118197  0.29141061470069096  0.01488894828964612  1.0000
  C   C30       1.0  0.42567439286865916  0.7085893851075304  0.985111051776208  1.0000
  C   C31       1.0  0.0758268646842351  0.05166965840202459  0.010012393390002492  1.0000
  C   C32       1.0  0.9241731361084577  0.9483303426460825  0.9899876066764299  1.0000
  C   C33       1.0  0.25488866091918894  0.03166587414824157  0.5060830220865817  1.0000
  C   C34       1.0  0.7451113395035369  0.9683341256447512  0.49391697797932604  1.0000
  C   C35       1.0  0.1617540326650092  0.8754926080754608  0.5266549505620662  1.0000
  C   C36       1.0  0.8382459677577165  0.12450739171753188  0.47334504950384165  1.0000
  C   C37       1.0  0.14164560591794734  0.7292727016132636  0.47418822728943527  1.0000
  C   C38       1.0  0.8583543945047784  0.27072729817972896  0.5258117727764727  1.0000
  C   C39       1.0  0.22219298056782166  0.7488136093759363  0.40365666678465106  1.0000
  C   C40       1.0  0.7778070185126571  0.2511863904322848  0.596343333281203  1.0000
  C   C41       1.0  0.3135475525517486  0.9102788769269929  0.38865090357135873  1.0000
  C   C42       1.0  0.6864524465287303  0.08972112288122827  0.6113490964944953  1.0000
  C   C43       1.0  0.04329512941345501  0.5687631715941577  0.4921243784674955  1.0000
  C   C44       1.0  0.9567048710092708  0.43123682819883485  0.5078756215984123  1.0000
  N   N1        1.0  0.6015378778897971  0.40919887199424787  0.07735888749700436  1.0000
  N   N2        1.0  0.39846212253292884  0.5908011277987448  0.9226411125689035  1.0000
  N   N3        1.0  0.32854561590965387  0.05004164147593321  0.4380005662889626  1.0000
  N   N4        1.0  0.671454384513072  0.9499583583170593  0.5619994337769453  1.0000
  I   I1        1.0  0.9506088162562673  0.6087617667333719  0.1293881547621527  1.0000
  I   I2        1.0  0.04939118416645855  0.39123823305962074  0.8706118453037552  1.0000
  I   I3        1.0  0.4700273537037187  0.34738383366792247  0.38034019173579003  1.0000
  I   I4        1.0  0.5299726467190072  0.6526161661250701  0.6196598083301179  1.0000
