data_image0
_chemical_formula_structural       H56C88N8I8
_chemical_formula_sum              "H56 C88 N8 I8"
_cell_length_a       12.341518184432537
_cell_length_b       9.536552672879642
_cell_length_c       17.5232785552551
_cell_angle_alpha    90.0
_cell_angle_beta     107.56377492526727
_cell_angle_gamma    90.0

_space_group_name_H-M_alt    "P 1"
_space_group_IT_number       1

loop_
  _space_group_symop_operation_xyz
  'x, y, z'

loop_
  _atom_site_type_symbol
  _atom_site_label
  _atom_site_symmetry_multiplicity
  _atom_site_fract_x
  _atom_site_fract_y
  _atom_site_fract_z
  _atom_site_occupancy
  H   H1        1.0  0.37856474083217495  0.0067250643078170325  0.3400305665349531  1.0000
  H   H2        1.0  0.6214352593194432  0.0067250643078170325  0.15996943333810407  1.0000
  H   H3        1.0  0.8785647413104776  0.5067250646811362  0.34003056636392953  1.0000
  H   H4        1.0  0.12143525884114052  0.5067250646811362  0.15996943350912768  1.0000
  H   H5        1.0  0.6214352593245143  0.9932749353902245  0.6599694335527079  1.0000
  H   H6        1.0  0.37856474058009837  0.9932749353902245  0.8400305661509831  1.0000
  H   H7        1.0  0.12143525884621162  0.4932749360655022  0.6599694337237314  1.0000
  H   H8        1.0  0.8785647413155488  0.4932749360655022  0.8400305665785334  1.0000
  H   H9        1.0  0.43673859787636005  0.23294501967336184  0.2941686542862556  1.0000
  H   H10       1.0  0.5632614022752581  0.23294501967336184  0.20583134558680166  1.0000
  H   H11       1.0  0.9367385975446044  0.7329450200466812  0.2941686541157326  1.0000
  H   H12       1.0  0.06326140260701375  0.7329450200466812  0.2058313457573246  1.0000
  H   H13       1.0  0.5632614022803293  0.7670549800246798  0.7058313458014054  1.0000
  H   H14       1.0  0.4367385978814312  0.7670549800246798  0.7941686545008594  1.0000
  H   H15       1.0  0.06326140235493712  0.26705497965136044  0.7058313453733546  1.0000
  H   H16       1.0  0.9367385975496756  0.26705497965136044  0.7941686543303365  1.0000
  H   H17       1.0  0.4552192095510721  0.1920070913263344  0.5351883996707733  1.0000
  H   H18       1.0  0.5447807906106882  0.1920070913263344  0.9648116006314914  1.0000
  H   H19       1.0  0.9552192092193166  0.6920070916996536  0.5351883995002503  1.0000
  H   H20       1.0  0.04478079068529618  0.6920070916996536  0.9648116002034406  1.0000
  H   H21       1.0  0.5447807906056171  0.8079929083717071  0.46481160041688774  1.0000
  H   H22       1.0  0.45521920954600104  0.8079929083717071  0.03518839945616952  1.0000
  H   H23       1.0  0.04478079093737278  0.30799290904698484  0.4648116005874106  1.0000
  H   H24       1.0  0.955219209471393  0.30799290904698484  0.03518839988422038  1.0000
  H   H25       1.0  0.40991513543970903  0.9482452055989529  0.5625248177429631  1.0000
  H   H26       1.0  0.5900848639119931  0.9482452055989529  0.9374751825598023  1.0000
  H   H27       1.0  0.9099151359180117  0.44824520627423053  0.5625248175719396  1.0000
  H   H28       1.0  0.090084863986601  0.44824520627423053  0.9374751821317515  1.0000
  H   H29       1.0  0.590084863906922  0.05175479409908871  0.43747518234519855  1.0000
  H   H30       1.0  0.4099151354346379  0.05175479409908871  0.0625248175283594  1.0000
  H   H31       1.0  0.0900848642386776  0.5517547944724079  0.4374751825157215  1.0000
  H   H32       1.0  0.9099151361700883  0.5517547944724079  0.06252481795590954  1.0000
  H   H33       1.0  0.12018389492436038  0.9699393184609677  0.3491147368684794  1.0000
  H   H34       1.0  0.8798161054844055  0.9699393184609677  0.1508852636031516  1.0000
  H   H35       1.0  0.6201838945926048  0.46993931913624537  0.34911473669795645  1.0000
  H   H36       1.0  0.3798161047489551  0.46993931913624537  0.15088526317560147  1.0000
  H   H37       1.0  0.8798161052323289  0.030060681237073894  0.6508852632191815  1.0000
  H   H38       1.0  0.12018389467228381  0.030060681237073894  0.8491147364845094  1.0000
  H   H39       1.0  0.3798161055640845  0.5300606816103931  0.6508852633897045  1.0000
  H   H40       1.0  0.6201838943405281  0.5300606816103931  0.8491147363139865  1.0000
  H   H41       1.0  0.1786731351968472  0.21277657551984974  0.33058316854455444  1.0000
  H   H42       1.0  0.8213268652119188  0.21277657551984974  0.16941683192707652  1.0000
  H   H43       1.0  0.6786731348650915  0.712776575893169  0.33058316837403157  1.0000
  H   H44       1.0  0.32132686447646835  0.712776575893169  0.1694168314995264  1.0000
  H   H45       1.0  0.8213268649598421  0.7872234241781918  0.6694168315431066  1.0000
  H   H46       1.0  0.1786731349447706  0.7872234241781918  0.8305831681605845  1.0000
  H   H47       1.0  0.3213268644815394  0.28722342380487254  0.6694168317141301  1.0000
  H   H48       1.0  0.6786731348701626  0.28722342380487254  0.8305831685886353  1.0000
  H   H49       1.0  0.15390882865771074  0.7528476134166905  0.4196788307460466  1.0000
  H   H50       1.0  0.8460911717510551  0.7528476134166905  0.08032116972558435  1.0000
  H   H51       1.0  0.6539088291360134  0.2528476130433713  0.419678830575023  1.0000
  H   H52       1.0  0.34609117101560477  0.2528476130433713  0.08032116929803419  1.0000
  H   H53       1.0  0.8460911714989785  0.24715238732994796  0.5803211693416143  1.0000
  H   H54       1.0  0.15390882840563416  0.24715238732994796  0.9196788303620766  1.0000
  H   H55       1.0  0.3460911710206759  0.7471523866546702  0.580321169512638  1.0000
  H   H56       1.0  0.6539088288839368  0.7471523866546702  0.919678830191053  1.0000
  C   C1        1.0  0.40904645246296456  0.6448048986807716  0.33511179270512564  1.0000
  C   C2        1.0  0.5909535479458015  0.6448048986807716  0.16488820776650534  1.0000
  C   C3        1.0  0.9090464529412672  0.14480489830745238  0.335111792534102  1.0000
  C   C4        1.0  0.09095354721035101  0.14480489830745238  0.1648882073389552  1.0000
  C   C5        1.0  0.5909535476937247  0.35519510206586685  0.6648882073825353  1.0000
  C   C6        1.0  0.40904645221088787  0.35519510206586685  0.8351117923211556  1.0000
  C   C7        1.0  0.09095354721542209  0.8551951013905892  0.6648882075535589  1.0000
  C   C8        1.0  0.9090464529463383  0.8551951013905892  0.8351117927487058  1.0000
  C   C9        1.0  0.4355261507009356  0.7523415867458869  0.3069102328125819  1.0000
  C   C10       1.0  0.5644738494506826  0.7523415867458869  0.19308976706047531  1.0000
  C   C11       1.0  0.9355261506263277  0.25234158637256776  0.30691023324063277  1.0000
  C   C12       1.0  0.06447384978243814  0.25234158637256776  0.19308976723099822  1.0000
  C   C13       1.0  0.5644738494557536  0.24765841400075153  0.693089767275079  1.0000
  C   C14       1.0  0.4355261507060067  0.24765841400075153  0.8069102330271857  1.0000
  C   C15       1.0  0.0644738495303615  0.7476584133254738  0.6930897668470282  1.0000
  C   C16       1.0  0.9355261503742512  0.7476584133254738  0.8069102328566629  1.0000
  C   C17       1.0  0.4665698469814296  0.8790272604312808  0.2768932441191862  1.0000
  C   C18       1.0  0.5334301531701886  0.8790272604312808  0.223106755753871  1.0000
  C   C19       1.0  0.966569846649674  0.37902726005796145  0.27689324394866327  1.0000
  C   C20       1.0  0.033430153501944136  0.37902726005796145  0.22310675592439394  1.0000
  C   C21       1.0  0.5334301531752597  0.12097273926676082  0.7231067559684747  1.0000
  C   C22       1.0  0.4665698469865008  0.12097273926676082  0.77689324433379  1.0000
  C   C23       1.0  0.03343015324986751  0.6209727396400802  0.7231067555404239  1.0000
  C   C24       1.0  0.9665698466547451  0.6209727396400802  0.7768932441632671  1.0000
  C   C25       1.0  0.43208947657244634  0.008246803923566245  0.3007585520946359  1.0000
  C   C26       1.0  0.5679105235791717  0.008246803923566245  0.1992414477784213  1.0000
  C   C27       1.0  0.9320894764978386  0.5082468042968855  0.3007585525226868  1.0000
  C   C28       1.0  0.06791052391092738  0.5082468042968855  0.19924144794894422  1.0000
  C   C29       1.0  0.567910523584243  0.9917531957744753  0.6992414479930251  1.0000
  C   C30       1.0  0.4320894765775175  0.9917531957744753  0.8007585523092396  1.0000
  C   C31       1.0  0.06791052365885075  0.49175319540115603  0.6992414475649742  1.0000
  C   C32       1.0  0.9320894762457619  0.49175319540115603  0.8007585521387167  1.0000
  C   C33       1.0  0.4651480031824349  0.13448136386297982  0.27494869424156804  1.0000
  C   C34       1.0  0.5348519969691833  0.13448136386297982  0.22505130563148917  1.0000
  C   C35       1.0  0.9651480028506791  0.634481364236299  0.2749486940710451  1.0000
  C   C36       1.0  0.0348519973009389  0.634481364236299  0.2250513058020121  1.0000
  C   C37       1.0  0.5348519969742545  0.8655186358350616  0.725051305846093  1.0000
  C   C38       1.0  0.465148003187506  0.8655186358350616  0.7749486944561719  1.0000
  C   C39       1.0  0.03485199730601006  0.36551863651033945  0.7250513060166159  1.0000
  C   C40       1.0  0.9651480028557504  0.36551863651033945  0.7749486942856488  1.0000
  C   C41       1.0  0.3815888225318497  0.1386917270180208  0.49511183182512986  1.0000
  C   C42       1.0  0.6184111768097101  0.1386917270180208  0.0048881680484281174  1.0000
  C   C43       1.0  0.8815888230101524  0.6386917273913401  0.49511183165410616  1.0000
  C   C44       1.0  0.11841117714146575  0.6386917273913401  0.004888168218951036  1.0000
  C   C45       1.0  0.6184111776248395  0.8613082726800207  0.5048881682625312  1.0000
  C   C46       1.0  0.38158882227977314  0.8613082726800207  0.9951118314411599  1.0000
  C   C47       1.0  0.11841117714653686  0.36130827335529847  0.5048881684335548  1.0000
  C   C48       1.0  0.8815888230152236  0.36130827335529847  0.9951118318687099  1.0000
  C   C49       1.0  0.3554835742998878  0.001809661267753353  0.5101331924481656  1.0000
  C   C50       1.0  0.6445164258618725  0.001809661267753353  0.9898668078540991  1.0000
  C   C51       1.0  0.8554835739681321  0.5018096605924757  0.5101331922776428  1.0000
  C   C52       1.0  0.14451642593648056  0.5018096605924757  0.9898668074260485  1.0000
  C   C53       1.0  0.6445164258568015  0.9981903394788851  0.48986680763949547  1.0000
  C   C54       1.0  0.3554835742948167  0.9981903394788851  0.010133192233561773  1.0000
  C   C55       1.0  0.14451642618855712  0.4981903391055659  0.4898668078100184  1.0000
  C   C56       1.0  0.8554835739630611  0.4981903391055659  0.010133192063038856  1.0000
  C   C57       1.0  0.26004002004047755  0.93498227460716  0.4576801211960959  1.0000
  C   C58       1.0  0.7399599801111406  0.93498227460716  0.04231987867696134  1.0000
  C   C59       1.0  0.7600400197087219  0.43498227423384084  0.457680121025573  1.0000
  C   C60       1.0  0.239959979632838  0.43498227423384084  0.04231987884798497  1.0000
  C   C61       1.0  0.7399599801162117  0.06501772509088152  0.5423198788915651  1.0000
  C   C62       1.0  0.2600400200455487  0.06501772509088152  0.9576801214106997  1.0000
  C   C63       1.0  0.23995997938076138  0.5650177254642008  0.542319878464015  1.0000
  C   C64       1.0  0.7600400197137931  0.5650177254642008  0.9576801212401769  1.0000
  C   C65       1.0  0.1953824353568264  0.014322154418380337  0.39210002203024275  1.0000
  C   C66       1.0  0.804617564794792  0.014322154418380337  0.10789997784281452  1.0000
  C   C67       1.0  0.6953824352822184  0.5143221547916996  0.39210002245829356  1.0000
  C   C68       1.0  0.3046175640593414  0.5143221547916996  0.10789997741526439  1.0000
  C   C69       1.0  0.8046175645427152  0.9856778452796612  0.6078999774588445  1.0000
  C   C70       1.0  0.19538243536189753  0.9856778452796612  0.8921000222448465  1.0000
  C   C71       1.0  0.30461756406441254  0.4856778449063419  0.6078999776298682  1.0000
  C   C72       1.0  0.6953824358402001  0.4856778449063419  0.8921000220738229  1.0000
  C   C73       1.0  0.22727044127221718  0.15115322165622064  0.3817873890014205  1.0000
  C   C74       1.0  0.7727295588794011  0.15115322165622064  0.11821261087163672  1.0000
  C   C75       1.0  0.7272704409404614  0.6511532220295398  0.3817873888308976  1.0000
  C   C76       1.0  0.27272955840109836  0.6511532220295398  0.11821261104266034  1.0000
  C   C77       1.0  0.7727295588844721  0.848846778041821  0.6182126110862405  1.0000
  C   C78       1.0  0.22727044102014052  0.848846778041821  0.8817873886174504  1.0000
  C   C79       1.0  0.27272955840616947  0.3488467787170986  0.6182126112572641  1.0000
  C   C80       1.0  0.727270441755591  0.3488467787170986  0.8817873890450006  1.0000
  C   C81       1.0  0.22581454486693658  0.7918174616152829  0.4682688749007894  1.0000
  C   C82       1.0  0.7741854552846816  0.7918174616152829  0.031731124972267835  1.0000
  C   C83       1.0  0.7258145447923288  0.2918174622905606  0.46826887532884026  1.0000
  C   C84       1.0  0.27418545480637896  0.2918174622905606  0.03173112514329146  1.0000
  C   C85       1.0  0.7741854552897527  0.20818253808275866  0.5317311251868716  1.0000
  C   C86       1.0  0.2258145448720077  0.20818253808275866  0.9682688751153932  1.0000
  C   C87       1.0  0.2741854545543023  0.7081825384560779  0.5317311247593215  1.0000
  C   C88       1.0  0.7258145453503104  0.7081825384560779  0.9682688749443696  1.0000
  N   N1        1.0  0.3191078441512303  0.21316860082797096  0.43177613255699804  1.0000
  N   N2        1.0  0.680892156000388  0.21316860082797096  0.06822386731605921  1.0000
  N   N3        1.0  0.8191078438194747  0.7131686012012902  0.4317761323864751  1.0000
  N   N4        1.0  0.18089215633214356  0.7131686012012902  0.06822386748658213  1.0000
  N   N5        1.0  0.680892156005459  0.7868313988700706  0.568223867530663  1.0000
  N   N6        1.0  0.31910784389915364  0.7868313988700706  0.931776132173028  1.0000
  N   N7        1.0  0.1808921563372147  0.2868313984967513  0.5682238677011859  1.0000
  N   N8        1.0  0.8191078438245458  0.2868313984967513  0.9317761326010789  1.0000
  I   I1        1.0  0.3703413975132834  0.46331203754216005  0.3811792927905392  1.0000
  I   I2        1.0  0.6296586020854242  0.46331203754216005  0.11882070768159253  1.0000
  I   I3        1.0  0.8703413979915862  0.9633120379154793  0.3811792926195156  1.0000
  I   I4        1.0  0.1296586021600321  0.9633120379154793  0.11882070725354166  1.0000
  I   I5        1.0  0.6296586018333477  0.5366879621558815  0.6188207072976226  1.0000
  I   I6        1.0  0.3703413972612068  0.5366879621558815  0.8811792924065692  1.0000
  I   I7        1.0  0.1296586021651032  0.03668796178256223  0.6188207074681453  1.0000
  I   I8        1.0  0.8703413979966572  0.03668796178256223  0.8811792928341194  1.0000
