data_image0
_chemical_formula_structural       H38C28N2O8S2
_chemical_formula_sum              "H38 C28 N2 O8 S2"
_cell_length_a       5.7586686253275
_cell_length_b       5.291762953897942
_cell_length_c       23.400153484289817
_cell_angle_alpha    90.0
_cell_angle_beta     92.75820321867727
_cell_angle_gamma    90.0

_space_group_name_H-M_alt    "P 1"
_space_group_IT_number       1

loop_
  _space_group_symop_operation_xyz
  'x, y, z'

loop_
  _atom_site_type_symbol
  _atom_site_label
  _atom_site_symmetry_multiplicity
  _atom_site_fract_x
  _atom_site_fract_y
  _atom_site_fract_z
  _atom_site_occupancy
  H   H1        1.0  0.5878471006732285  0.048362126616326835  0.7038009481494559  1.0000
  H   H2        1.0  0.4121528987684233  0.5483621253031593  0.29619905187268664  1.0000
  H   H3        1.0  0.3825443522518984  0.9593444650162439  0.7554614530020591  1.0000
  H   H4        1.0  0.6174556471897534  0.45934446632941145  0.24453854702008357  1.0000
  H   H5        1.0  0.9692548938513991  0.617602791068451  0.7085189257351958  1.0000
  H   H6        1.0  0.030745107328772364  0.11760279238161851  0.29148107430874615  1.0000
  H   H7        1.0  0.83267415121908  0.3963047623770122  0.6614291355947838  1.0000
  H   H8        1.0  0.167325848222572  0.8963047629535741  0.33857086442735884  1.0000
  H   H9        1.0  0.8678707173892058  0.26678331064699223  0.5043921297166375  1.0000
  H   H10       1.0  0.1321292837909656  0.7667833112235541  0.4956078703273045  1.0000
  H   H11       1.0  0.16157351721620203  0.933863503156326  0.6597486189612981  1.0000
  H   H12       1.0  0.8384264839639695  0.4338635025797641  0.34025138108264374  1.0000
  H   H13       1.0  0.49971024102202716  0.6766446194197867  0.5896821992474763  1.0000
  H   H14       1.0  0.5002897601581443  0.1766446188432249  0.4103178007964655  1.0000
  H   H15       1.0  0.185123017692718  0.24297259178113917  0.5802061890688415  1.0000
  H   H16       1.0  0.8148769817489337  0.7429725923577011  0.41979381095330115  1.0000
  H   H17       1.0  0.5226708206138232  0.9828981202131739  0.5098985534546936  1.0000
  H   H18       1.0  0.47732917882782866  0.48289811963661206  0.49010144656744903  1.0000
  H   H19       1.0  0.7929898026732423  0.9183355041291827  0.8701075896156816  1.0000
  H   H20       1.0  0.20701019676840957  0.41833550355262084  0.12989241040646107  1.0000
  H   H21       1.0  0.9445983045617847  0.4674313761877749  0.9401645727853042  1.0000
  H   H22       1.0  0.055401694879867104  0.9674313767643368  0.059835427236838525  1.0000
  H   H23       1.0  0.2683870773965292  0.1534317820116889  0.8492245559340234  1.0000
  H   H24       1.0  0.7316129220451225  0.6534317825882507  0.15077544408811921  1.0000
  H   H25       1.0  0.4200225370559293  0.39386338884751887  0.8133994285647845  1.0000
  H   H26       1.0  0.5799774623857226  0.8938633894240807  0.18660057145735812  1.0000
  H   H27       1.0  0.599649635989985  0.23857407087179744  0.9171575880146137  1.0000
  H   H28       1.0  0.40035036519018635  0.7385740714483594  0.08284241202932818  1.0000
  H   H29       1.0  0.5735466704622652  0.5718509930175458  0.9039822030674338  1.0000
  H   H30       1.0  0.42645333071790625  0.07185099433071335  0.09601779697650796  1.0000
  H   H31       1.0  0.9600257170457592  0.4513054818982089  0.8390148001008317  1.0000
  H   H32       1.0  0.039974282395892485  0.9513054824747708  0.16098519992131105  1.0000
  H   H33       1.0  0.1523975908977796  0.7124949403152565  0.8399179111490778  1.0000
  H   H34       1.0  0.8476024085438723  0.21249493973869465  0.1600820888730649  1.0000
  H   H35       1.0  0.374986959733485  0.5161310046944093  0.9858117874827622  1.0000
  H   H36       1.0  0.6250130397081668  0.016131004117847396  0.014188212539380372  1.0000
  H   H37       1.0  0.26304200084719864  0.23340216686958962  0.9645376224088381  1.0000
  H   H38       1.0  0.7369580003329728  0.7334021674461515  0.0354623776351038  1.0000
  C   C1        1.0  0.7427209528070854  0.9535819752249093  0.7863199800744746  1.0000
  C   C2        1.0  0.2572790466394929  0.4535819746483473  0.21368001952038063  1.0000
  C   C3        1.0  0.5553227077262662  0.9216244893221381  0.7395706573259415  1.0000
  C   C4        1.0  0.4446772917153856  0.42162449063530555  0.2604293426962013  1.0000
  C   C5        1.0  0.8322845313052288  0.7799640093401661  0.6292858725391579  1.0000
  C   C6        1.0  0.1677154681364231  0.2799640106533337  0.3707141274829848  1.0000
  C   C7        1.0  0.8227938107108026  0.591464035193509  0.6772976798359344  1.0000
  C   C8        1.0  0.17720618873084917  0.09146403461694717  0.3227023201862083  1.0000
  C   C9        1.0  0.8566622807592014  0.13172849692492933  0.5393605677019673  1.0000
  C   C10       1.0  0.14333771868245052  0.6317284956117618  0.46063943232017535  1.0000
  C   C11       1.0  0.02283602527462062  0.9432065237017911  0.626406358971015  1.0000
  C   C12       1.0  0.9771639759055507  0.44320652312522923  0.3735936410729268  1.0000
  C   C13       1.0  0.6523968389980606  0.7975438047335852  0.5868794441249139  1.0000
  C   C14       1.0  0.3476031604435913  0.2975438041570232  0.41312055589722874  1.0000
  C   C15       1.0  0.0356296892279648  0.11708992738300762  0.5816609161446414  1.0000
  C   C16       1.0  0.964370310213687  0.6170899279595695  0.4183390838775013  1.0000
  C   C17       1.0  0.6644859425040287  0.9715103576612608  0.5423431774134218  1.0000
  C   C18       1.0  0.33551405693762315  0.4715103589744283  0.45765682260872104  1.0000
  C   C19       1.0  0.10835413608197317  0.8317815855220354  0.9438999612884956  1.0000
  C   C20       1.0  0.8916458633596788  0.3317815849454735  0.05610003873364699  1.0000
  C   C21       1.0  0.10147620594467936  0.55608276781038  0.9247790617767991  1.0000
  C   C22       1.0  0.8985237934969724  0.0560827672338181  0.07522093824534351  1.0000
  C   C23       1.0  0.32708973324371027  0.35009966926718283  0.8519790502523804  1.0000
  C   C24       1.0  0.6729102679413876  0.8500996698437447  0.14802094936427382  1.0000
  C   C25       1.0  0.4797293322983646  0.39215482403107327  0.9056619770570464  1.0000
  C   C26       1.0  0.5202706671432872  0.8921548246076352  0.09433802296509619  1.0000
  C   C27       1.0  0.12037379096427095  0.5276210299524781  0.859246447624495  1.0000
  C   C28       1.0  0.8796262084823073  0.02762102937591617  0.14075355197036024  1.0000
  N   N1        1.0  0.30655015190552437  0.4170779831273912  0.9510747793824575  1.0000
  N   N2        1.0  0.6934498475361276  0.9170779837039532  0.0489252206396851  1.0000
  O   O1        1.0  0.6671031784658211  0.8953476509203774  0.8378611434284389  1.0000
  O   O2        1.0  0.33289682271435034  0.39534765034381547  0.16213885661550306  1.0000
  O   O3        1.0  0.9429912452497728  0.01857592277968387  0.7773522028095976  1.0000
  O   O4        1.0  0.05700875419187902  0.5185759214665163  0.22264779721254516  1.0000
  O   O5        1.0  0.28022269599974653  0.9074925770177681  0.9753530252920725  1.0000
  O   O6        1.0  0.7197773034419053  0.4074925783309355  0.024646974730070156  1.0000
  O   O7        1.0  0.9394728142704372  0.9709814677573888  0.9265086677798096  1.0000
  O   O8        1.0  0.06052718690973437  0.47098146907055644  0.07349133226413229  1.0000
  S   S1        1.0  0.5515136402636405  0.5976354983305613  0.7139844208873196  1.0000
  S   S2        1.0  0.4484863591780114  0.09763549775399945  0.286015579134823  1.0000
