data_image0
_chemical_formula_structural       H76C56N4O16S4
_chemical_formula_sum              "H76 C56 N4 O16 S4"
_cell_length_a       30.91670570707939
_cell_length_b       8.745970022580789
_cell_length_c       5.165455889020205
_cell_angle_alpha    90.0
_cell_angle_beta     90.0
_cell_angle_gamma    90.0

_space_group_name_H-M_alt    "P 1"
_space_group_IT_number       1

loop_
  _space_group_symop_operation_xyz
  'x, y, z'

loop_
  _atom_site_type_symbol
  _atom_site_label
  _atom_site_symmetry_multiplicity
  _atom_site_fract_x
  _atom_site_fract_y
  _atom_site_fract_z
  _atom_site_occupancy
  H   H1        1.0  0.051909296391578805  0.7845159041575734  0.6124057813994869  1.0000
  H   H2        1.0  0.9480907037028882  0.21548409669072716  0.11240578033667704  1.0000
  H   H3        1.0  0.5519092962770875  0.7154840965431856  0.6124057813994869  1.0000
  H   H4        1.0  0.4480907034939299  0.284515904305115  0.11240578033667704  1.0000
  H   H5        1.0  0.9217872874299899  0.7531599620159976  0.17844498139250195  1.0000
  H   H6        1.0  0.07821271266447712  0.24684003768891927  0.6784449824553118  1.0000
  H   H7        1.0  0.4217872872210315  0.7468400375413776  0.17844498139250195  1.0000
  H   H8        1.0  0.5782127125499857  0.25315996216353914  0.6784449824553118  1.0000
  H   H9        1.0  0.9209879742614352  0.9181562535964916  0.7801808720438841  1.0000
  H   H10       1.0  0.07901202550958213  0.08184374725180896  0.28018087291701177  1.0000
  H   H11       1.0  0.42098797437592655  0.5818437471042675  0.7801808720438841  1.0000
  H   H12       1.0  0.5790120257185405  0.4181562537440332  0.28018087291701177  1.0000
  H   H13       1.0  0.17091081307508307  0.6074569654690266  0.34936798586083934  1.0000
  H   H14       1.0  0.8290891870193839  0.392543035379274  0.8493679849877117  1.0000
  H   H15       1.0  0.6709108129605917  0.8925430352317324  0.34936798586083934  1.0000
  H   H16       1.0  0.3290891868104256  0.1074569656165682  0.8493679849877117  1.0000
  H   H17       1.0  0.12763025845591483  0.4734999456101493  0.3984312487063714  1.0000
  H   H18       1.0  0.8723697416385522  0.5265000540947675  0.8984312478332437  1.0000
  H   H19       1.0  0.6276302583414235  0.026500054242309074  0.3984312487063714  1.0000
  H   H20       1.0  0.3723697414295938  0.9734999454626078  0.8984312478332437  1.0000
  H   H21       1.0  0.9879966937423603  0.607223650011195  0.28808388106906535  1.0000
  H   H22       1.0  0.012003306352106715  0.3927763496937218  0.7880838821318754  1.0000
  H   H23       1.0  0.4879966935334019  0.8927763495461802  0.28808388106906535  1.0000
  H   H24       1.0  0.5120033062376154  0.10722365015873658  0.7880838821318754  1.0000
  H   H25       1.0  0.07665866319830135  0.537753877255135  0.846413570057475  1.0000
  H   H26       1.0  0.9233413365727159  0.4622461235931655  0.34641356899466513  1.0000
  H   H27       1.0  0.5766586634072597  0.962246123445624  0.846413570057475  1.0000
  H   H28       1.0  0.4233413366872073  0.03775387625929288  0.34641356899466513  1.0000
  H   H29       1.0  0.054753629834901126  0.4969590712954964  0.1574661341565119  1.0000
  H   H30       1.0  0.9452463702595658  0.5030409284094205  0.6574661352193217  1.0000
  H   H31       1.0  0.5547536297204098  0.0030409285569620564  0.1574661341565119  1.0000
  H   H32       1.0  0.44524637037405723  0.9969590711479548  0.6574661352193217  1.0000
  H   H33       1.0  0.9866602107939024  0.9365225776960796  0.5066609426600726  1.0000
  H   H34       1.0  0.01333978930056453  0.06347742200883719  0.006660941597262649  1.0000
  H   H35       1.0  0.48666021090839384  0.5634774218612956  0.5066609426600726  1.0000
  H   H36       1.0  0.5133397891860731  0.43652257784362125  0.006660941597262649  1.0000
  H   H37       1.0  0.19958449740610829  0.46338274422807896  0.7436368159033127  1.0000
  H   H38       1.0  0.8004155026883587  0.5366172554768378  0.24363681677644028  1.0000
  H   H39       1.0  0.6995844972916169  0.036617255624379404  0.7436368159033127  1.0000
  H   H40       1.0  0.30041550280285007  0.9633827452239212  0.24363681677644028  1.0000
  H   H41       1.0  0.1499314562786221  0.19499884353556807  0.41236611748591173  1.0000
  H   H42       1.0  0.8500685438158448  0.8050011561693488  0.9123661185487215  1.0000
  H   H43       1.0  0.6499314561641307  0.30500115631689034  0.41236611748591173  1.0000
  H   H44       1.0  0.35006854393033626  0.6949988433880265  0.9123661185487215  1.0000
  H   H45       1.0  0.1549157997419916  0.0085666918371041  0.2800687163111967  1.0000
  H   H46       1.0  0.8450842000290256  0.9914333078678127  0.7800687173740065  1.0000
  H   H47       1.0  0.65491579995095  0.4914333080153543  0.2800687163111967  1.0000
  H   H48       1.0  0.34508420014351704  0.5085666916895625  0.7800687173740065  1.0000
  H   H49       1.0  0.22945192664481134  0.08820770457801713  0.2859348297097079  1.0000
  H   H50       1.0  0.7705480734496557  0.9117922951268996  0.7859348288365803  1.0000
  H   H51       1.0  0.72945192653032  0.4117922952744413  0.2859348297097079  1.0000
  H   H52       1.0  0.27054807324069735  0.5882077044304755  0.7859348288365803  1.0000
  H   H53       1.0  0.11671777789616535  0.9565818209300545  0.6900144181999922  1.0000
  H   H54       1.0  0.8832822221983017  0.0434181787748624  0.1900144171371823  1.0000
  H   H55       1.0  0.6167177777816739  0.5434181786273208  0.6900144181999922  1.0000
  H   H56       1.0  0.383282222312793  0.456581821077596  0.1900144171371823  1.0000
  H   H57       1.0  0.1487484715729901  0.09404403603904558  0.8537683671588799  1.0000
  H   H58       1.0  0.8512515285214769  0.9059559636658713  0.35376836803200745  1.0000
  H   H59       1.0  0.6487484714584987  0.4059559638134128  0.8537683671588799  1.0000
  H   H60       1.0  0.3512515283125185  0.5940440370348877  0.35376836803200745  1.0000
  H   H61       1.0  0.19049878877138532  0.8645950123859061  0.9534609985671946  1.0000
  H   H62       1.0  0.8095012113230816  0.13540498731901077  0.4534609975043846  1.0000
  H   H63       1.0  0.690498788656894  0.6354049871714692  0.9534609985671946  1.0000
  H   H64       1.0  0.3095012114375731  0.3645950125334476  0.4534609975043846  1.0000
  H   H65       1.0  0.1756683196281283  0.7768570761685616  0.6595810927825491  1.0000
  H   H66       1.0  0.824331680142889  0.22314292353635523  0.1595810936556767  1.0000
  H   H67       1.0  0.6756683198370865  0.7231429245321974  0.6595810927825491  1.0000
  H   H68       1.0  0.32433168025738035  0.2768570763161032  0.1595810936556767  1.0000
  H   H69       1.0  0.23727039062639427  0.8598877963888575  0.4995895029295266  1.0000
  H   H70       1.0  0.762729609144623  0.14011220445944314  0.999589502056399  1.0000
  H   H71       1.0  0.7372703908353526  0.6401122043119015  0.4995895029295266  1.0000
  H   H72       1.0  0.26272960925911437  0.359887796536399  0.999589502056399  1.0000
  H   H73       1.0  0.24697610742698112  0.972535382357747  0.7607896310475354  1.0000
  H   H74       1.0  0.7530238926674858  0.02746461849055362  0.26078963192066296  1.0000
  H   H75       1.0  0.7469761073124898  0.5274646183430121  0.7607896310475354  1.0000
  H   H76       1.0  0.25302389278197723  0.4725353813619048  0.26078963192066296  1.0000
  C   C1        1.0  0.023610440482112957  0.7793784591533037  0.7387720971756949  1.0000
  C   C2        1.0  0.9763895596123541  0.22062154055161312  0.2387720980488225  1.0000
  C   C3        1.0  0.5236104403676216  0.7206215415474553  0.7387720971756949  1.0000
  C   C4        1.0  0.47638955940339567  0.2793784593008453  0.2387720980488225  1.0000
  C   C5        1.0  0.9500808002734266  0.7608740566019393  0.052770687787579665  1.0000
  C   C6        1.0  0.04991919982104052  0.23912594310297744  0.552770686914452  1.0000
  C   C7        1.0  0.4500808000644681  0.7391259440988196  0.052770687787579665  1.0000
  C   C8        1.0  0.5499191997065492  0.26087405674948094  0.552770686914452  1.0000
  C   C9        1.0  0.9497600465005648  0.853204199275092  0.8321019852548367  1.0000
  C   C10       1.0  0.0502399535939022  0.14679580042982482  0.33210198419202686  1.0000
  C   C11       1.0  0.44976004661505614  0.6467958002822832  0.8321019852548367  1.0000
  C   C12       1.0  0.5502399534794108  0.3532041994226336  0.33210198419202686  1.0000
  C   C13       1.0  0.1428484658696583  0.5519061039012854  0.26003880951827946  1.0000
  C   C14       1.0  0.8571515342248087  0.44809389580363146  0.7600388086451518  1.0000
  C   C15       1.0  0.6428484657551669  0.9480938956560898  0.26003880951827946  1.0000
  C   C16       1.0  0.35715153401585037  0.05190610404882697  0.7600388086451518  1.0000
  C   C17       1.0  0.15688962032230094  0.4637906932595516  0.023259308100061882  1.0000
  C   C18       1.0  0.8431103794487164  0.5362093064453652  0.5232593091628718  1.0000
  C   C19       1.0  0.6568896205312592  0.036209306592906824  0.023259308100061882  1.0000
  C   C20       1.0  0.3431103795632077  0.96379069311201  0.5232593091628718  1.0000
  C   C21       1.0  0.9872862011624548  0.6782513745970485  0.11519583029734638  1.0000
  C   C22       1.0  0.012713798608562426  0.3217486251078682  0.6151958294242187  1.0000
  C   C23       1.0  0.4872862012769462  0.8217486249603266  0.11519583029734638  1.0000
  C   C24       1.0  0.5127137988175208  0.17825137474459019  0.6151958294242187  1.0000
  C   C25       1.0  0.0630551084087076  0.5893537076724398  0.022152337075073688  1.0000
  C   C26       1.0  0.9369448913623096  0.410646292032477  0.522152336201946  1.0000
  C   C27       1.0  0.563055108617666  0.9106462918849354  0.022152337075073688  1.0000
  C   C28       1.0  0.43694489147680105  0.0893537078199814  0.522152336201946  1.0000
  C   C29       1.0  0.9866552186708263  0.863400440489018  0.6770265190791025  1.0000
  C   C30       1.0  0.01334478110019099  0.13659956035928253  0.17702651995223015  1.0000
  C   C31       1.0  0.48665521878531764  0.6365995602117409  0.6770265190791025  1.0000
  C   C32       1.0  0.5133447813091493  0.36340044063655963  0.17702651995223015  1.0000
  C   C33       1.0  0.024188331612211882  0.6852115333722141  0.9584214164955451  1.0000
  C   C34       1.0  0.9758116684822551  0.31478846633270274  0.4584214154327353  1.0000
  C   C35       1.0  0.5241883314977205  0.8147884661851612  0.9584214164955451  1.0000
  C   C36       1.0  0.47581166859674645  0.1852115335197557  0.4584214154327353  1.0000
  C   C37       1.0  0.16346776651701117  0.0811857596317803  0.4460240818041352  1.0000
  C   C38       1.0  0.8365322335774559  0.9188142412165202  0.9460240828669452  1.0000
  C   C39       1.0  0.6634677664025197  0.4188142402206781  0.4460240818041352  1.0000
  C   C40       1.0  0.33653223369194724  0.5811857594842387  0.9460240828669452  1.0000
  C   C41       1.0  0.22775654679106458  0.22913908175146483  0.6268974238814439  1.0000
  C   C42       1.0  0.7722434533034025  0.7708609190968357  0.12689742281863403  1.0000
  C   C43       1.0  0.7277565466765732  0.2708609181009936  0.6268974238814439  1.0000
  C   C44       1.0  0.2722434534178938  0.7291390816039233  0.12689742281863403  1.0000
  C   C45       1.0  0.2127550367856244  0.08860391334514682  0.4734346111053267  1.0000
  C   C46       1.0  0.7872449633088426  0.9113960875031537  0.9734346121681366  1.0000
  C   C47       1.0  0.712755036671133  0.41139608765069535  0.4734346111053267  1.0000
  C   C48       1.0  0.2872449630998842  0.5886039131976052  0.9734346121681366  1.0000
  C   C49       1.0  0.1490431682358986  0.007478892544923057  0.7002908799761606  1.0000
  C   C50       1.0  0.8509568318585684  0.9925211071599938  0.20029088084928823  1.0000
  C   C51       1.0  0.649043168444857  0.49252110730753534  0.7002908799761606  1.0000
  C   C52       1.0  0.35095683164961  0.5074788923973814  0.20029088084928823  1.0000
  C   C53       1.0  0.18352341720226567  0.8865004018973449  0.7495032816424573  1.0000
  C   C54       1.0  0.8164765828922014  0.11349959780757189  0.24950328057964738  1.0000
  C   C55       1.0  0.6835234170877743  0.6134995976600303  0.7495032816424573  1.0000
  C   C56       1.0  0.3164765830066927  0.3865004020448865  0.24950328057964738  1.0000
  N   N1        1.0  0.2240641886504021  0.9464385332477326  0.6211209424553951  1.0000
  N   N2        1.0  0.7759358111206152  0.053561466457184265  0.12112094139258514  1.0000
  N   N3        1.0  0.7240641888593605  0.5535614674530265  0.6211209424553951  1.0000
  N   N4        1.0  0.2759358112351065  0.4464385333952741  0.12112094139258514  1.0000
  O   O1        1.0  0.18965713085845828  0.5305717133741908  0.8970399669561239  1.0000
  O   O2        1.0  0.8103428692360087  0.4694282863307259  0.39703996782925155  1.0000
  O   O3        1.0  0.689657130743967  0.9694282861831844  0.8970399669561239  1.0000
  O   O4        1.0  0.3103428693505001  0.030571713521732477  0.39703996782925155  1.0000
  O   O5        1.0  0.13910471706612726  0.34541321913982065  0.9514414265828175  1.0000
  O   O6        1.0  0.86089528270489  0.65458678170848  0.45144142745594523  1.0000
  O   O7        1.0  0.6391047172750857  0.15458678185602154  0.9514414265828175  1.0000
  O   O8        1.0  0.3608952828193814  0.8454132189922791  0.45144142745594523  1.0000
  O   O9        1.0  0.2476940597279249  0.20688055473875097  0.8376988503953275  1.0000
  O   O10       1.0  0.7523059403665421  0.7931194449661658  0.33769885126845517  1.0000
  O   O11       1.0  0.7476940596134336  0.29311944511370747  0.8376988503953275  1.0000
  O   O12       1.0  0.25230594048103344  0.7068805545912095  0.33769885126845517  1.0000
  O   O13       1.0  0.21823077154222997  0.3588512128325225  0.5298985430924263  1.0000
  O   O14       1.0  0.7817692285522371  0.6411487868723944  0.02989854396555392  1.0000
  O   O15       1.0  0.7182307714277386  0.14114878701993594  0.5298985430924263  1.0000
  O   O16       1.0  0.28176922834327867  0.8588512126849809  0.02989854396555392  1.0000
  S   S1        1.0  0.1055206961863656  0.7044223995844471  0.17392941287325855  1.0000
  S   S2        1.0  0.8944793039081015  0.29557760012046974  0.6739294120001309  1.0000
  S   S3        1.0  0.6055206960718743  0.7955776011163118  0.17392941287325855  1.0000
  S   S4        1.0  0.3944793040225928  0.20442239973198867  0.6739294120001309  1.0000
