data_image0
_chemical_formula_structural       H48C60N4O4
_chemical_formula_sum              "H48 C60 N4 O4"
_cell_length_a       10.3604350139192
_cell_length_b       10.796748631990441
_cell_length_c       11.394007880779009
_cell_angle_alpha    116.10662413073698
_cell_angle_beta     101.50391227117744
_cell_angle_gamma    99.46327445611253

_space_group_name_H-M_alt    "P 1"
_space_group_IT_number       1

loop_
  _space_group_symop_operation_xyz
  'x, y, z'

loop_
  _atom_site_type_symbol
  _atom_site_label
  _atom_site_symmetry_multiplicity
  _atom_site_fract_x
  _atom_site_fract_y
  _atom_site_fract_z
  _atom_site_occupancy
  H   H1        1.0  0.8675560256405175  0.2909795882914856  0.9239594268043542  1.0000
  H   H2        1.0  0.1324439738549207  0.709020412438976  0.07604057368269826  1.0000
  H   H3        1.0  0.017042839511318946  0.4380043200229269  0.8613796943432013  1.0000
  H   H4        1.0  0.9829571606729158  0.561995679619963  0.1386203049479604  1.0000
  H   H5        1.0  0.047434883477152766  0.601218854580398  0.7635413125243501  1.0000
  H   H6        1.0  0.9525651167058645  0.3987811450711965  0.23645868764784037  1.0000
  H   H7        1.0  0.9491841222385541  0.738121517618284  0.6597144904305907  1.0000
  H   H8        1.0  0.0508158779456808  0.2618784820246057  0.3402855088605711  1.0000
  H   H9        1.0  0.6961016766638218  0.7039500409136706  0.5951881428995938  1.0000
  H   H10       1.0  0.3038983238171903  0.296049959805774  0.40481185688719545  1.0000
  H   H11       1.0  0.5428480100023384  0.5380350147360006  0.636677666549421  1.0000
  H   H12       1.0  0.45715199018067887  0.461964984915594  0.3633223336227693  1.0000
  H   H13       1.0  0.534733156354176  0.16638442674106083  0.5400127880796711  1.0000
  H   H14       1.0  0.4652668428444852  0.833615572912846  0.45998721191175374  1.0000
  H   H15       1.0  0.37058674476894965  0.954878847509308  0.3326072969827714  1.0000
  H   H16       1.0  0.6294132554140676  0.04512115214228645  0.6673927031894189  1.0000
  H   H17       1.0  0.1180481117437701  0.916694403641265  0.28927629322502707  1.0000
  H   H18       1.0  0.8819518884404648  0.08330559600162467  0.7107237060661348  1.0000
  H   H19       1.0  0.03011863688985678  0.09170208681389265  0.4588388429131589  1.0000
  H   H20       1.0  0.9698813635911553  0.908297913905552  0.5411611568736304  1.0000
  H   H21       1.0  0.07440216166796725  0.3120459722677305  0.678782617393102  1.0000
  H   H22       1.0  0.9255978385150501  0.6879540273838639  0.3212173827790884  1.0000
  H   H23       1.0  0.23932938649947658  0.5321649810236772  0.882248681195415  1.0000
  H   H24       1.0  0.7606706136847582  0.4678350186192126  0.11775131809574682  1.0000
  H   H25       1.0  0.6441378509995946  0.14241306531470801  0.9091778678350034  1.0000
  H   H26       1.0  0.3558621491834226  0.8575869343368864  0.09082213233718688  1.0000
  H   H27       1.0  0.46228177622937466  0.6554809176328849  0.010537620756860844  1.0000
  H   H28       1.0  0.5377182239536427  0.3445190820187097  0.9894623794153297  1.0000
  H   H29       1.0  0.5948785596420901  0.7502857463671803  0.9143693778863932  1.0000
  H   H30       1.0  0.4051214408389219  0.2497142543522643  0.08563062190039611  1.0000
  H   H31       1.0  0.8719312206745122  0.15929194677413333  0.06606776295388533  1.0000
  H   H32       1.0  0.128068778524149  0.8407080528797736  0.9339322370375395  1.0000
  H   H33       1.0  0.43521699997497637  0.06361130132619637  0.7684060209682909  1.0000
  H   H34       1.0  0.564783000208041  0.9363886983253981  0.23159397920389935  1.0000
  H   H35       1.0  0.20876214646930738  0.9576212954675497  0.5937093439357685  1.0000
  H   H36       1.0  0.7912378530273483  0.04237870525420714  0.40629065567025524  1.0000
  H   H37       1.0  0.0787599818101736  0.7005417808251857  0.5011405525876268  1.0000
  H   H38       1.0  0.9212400173884876  0.29945821882872126  0.49885944740379795  1.0000
  H   H39       1.0  0.17996578909556457  0.5517489207092935  0.5873653002259781  1.0000
  H   H40       1.0  0.8200342113842298  0.4482510800188558  0.41263470044183975  1.0000
  H   H41       1.0  0.40660626227563973  0.6548892325842471  0.7598043662557443  1.0000
  H   H42       1.0  0.5933937369230213  0.3451107670696596  0.24019563373568054  1.0000
  H   H43       1.0  0.8238342478943856  0.8544921162333228  0.1522394881700994  1.0000
  H   H44       1.0  0.1761657522886318  0.14550788341827173  0.8477605120020911  1.0000
  H   H45       1.0  0.8866911676666874  0.787031608174603  0.009265391166969453  1.0000
  H   H46       1.0  0.11330883281310684  0.21296839255354622  0.9907346095008484  1.0000
  H   H47       1.0  0.9638754857266233  0.9682409972434055  0.14468192244404413  1.0000
  H   H48       1.0  0.03612451347203784  0.031759002410501544  0.8553180775473809  1.0000
  C   C1        1.0  0.6801782516844647  0.3307458414881372  0.8434921103414661  1.0000
  C   C2        1.0  0.31982174879532976  0.6692541592400121  0.15650789032635185  1.0000
  C   C3        1.0  0.8237172354586858  0.3438454415953697  0.8700688771090982  1.0000
  C   C4        1.0  0.17628276502110868  0.6561545591327795  0.12993112355871975  1.0000
  C   C5        1.0  0.9070011771860722  0.4253241013419134  0.8346470817442871  1.0000
  C   C6        1.0  0.09299882329372221  0.5746758993862359  0.1653529189235307  1.0000
  C   C7        1.0  0.8526032479888869  0.49935064171029403  0.7698099216409446  1.0000
  C   C8        1.0  0.14739675249090753  0.5006493590178553  0.2301900790268733  1.0000
  C   C9        1.0  0.9374283325653658  0.5913693707925303  0.7397705747239365  1.0000
  C   C10       1.0  0.0625716676176515  0.40863062885906426  0.26022942544825395  1.0000
  C   C11       1.0  0.8826945026656573  0.6662499407985469  0.6806299160874442  1.0000
  C   C12       1.0  0.11730549751736004  0.3337500588530475  0.3193700840847462  1.0000
  C   C13       1.0  0.7392933877490205  0.6467181553757557  0.6439478203362395  1.0000
  C   C14       1.0  0.2607066124339969  0.35328184427583886  0.356052179835951  1.0000
  C   C15       1.0  0.6536597149982181  0.5548886715522743  0.6684190024907697  1.0000
  C   C16       1.0  0.3463402851847992  0.4451113280993202  0.33158099768142063  1.0000
  C   C17       1.0  0.7070323459692527  0.4820168649034366  0.735980718662316  1.0000
  C   C18       1.0  0.2929676545105417  0.5179831358247127  0.26401928200550195  1.0000
  C   C19       1.0  0.6219644016171213  0.39654414035523583  0.7725892091108281  1.0000
  C   C20       1.0  0.37803559856589597  0.6034558592963586  0.2274107910613623  1.0000
  C   C21       1.0  0.4199406258101209  0.4781319964588731  0.8302222067281798  1.0000
  C   C22       1.0  0.580059374670891  0.5218680042605713  0.16977779305860943  1.0000
  C   C23       1.0  0.47162463522617515  0.3774932173397205  0.7409919562793812  1.0000
  C   C24       1.0  0.5283753649568422  0.622506782311874  0.2590080438928092  1.0000
  C   C25       1.0  0.37803173683586533  0.2528428850744054  0.6215218165731532  1.0000
  C   C26       1.0  0.6219682633483695  0.7471571145684844  0.37847818271800854  1.0000
  C   C27       1.0  0.42446351765017354  0.1501686331485717  0.522804010964462  1.0000
  C   C28       1.0  0.5755364818452647  0.8498313675818899  0.4771959895225903  1.0000
  C   C29       1.0  0.33231844838399455  0.03238998025035423  0.4060875954708058  1.0000
  C   C30       1.0  0.6676815511114436  0.9676100204801075  0.5939124050162465  1.0000
  C   C31       1.0  0.18915604784501072  0.010759248016307257  0.38162241612388176  1.0000
  C   C32       1.0  0.8108439513548679  0.9892407516288948  0.6183775829865145  1.0000
  C   C33       1.0  0.14044361834376964  0.10762308614764535  0.4759950035260031  1.0000
  C   C34       1.0  0.8595563811516687  0.8923769145828163  0.5240049969610493  1.0000
  C   C35       1.0  0.23234176920166022  0.22971404781205781  0.5971645377015542  1.0000
  C   C36       1.0  0.7676582309825747  0.7702859518308319  0.40283546158960765  1.0000
  C   C37       1.0  0.18487464999773742  0.3314480439405379  0.694928960146526  1.0000
  C   C38       1.0  0.8151253501852798  0.6685519557110564  0.3050710400256643  1.0000
  C   C39       1.0  0.2757799720727112  0.45302666115031504  0.807840903563414  1.0000
  C   C40       1.0  0.7242200281103062  0.5469733385012794  0.19215909660877628  1.0000
  C   C41       1.0  0.5749545800626152  0.9236761609242553  0.8757953154215585  1.0000
  C   C42       1.0  0.4250454204171792  0.07632383980389386  0.12420468524625917  1.0000
  C   C43       1.0  0.7706259428715263  0.934744845559892  0.012730867771194213  1.0000
  C   C44       1.0  0.2293740576082681  0.06525515516825718  0.9872691328966237  1.0000
  C   C45       1.0  0.7853237774236361  0.06307198458037469  0.011526181727691485  1.0000
  C   C46       1.0  0.2146762217750251  0.9369280150735324  0.9884738182637335  1.0000
  C   C47       1.0  0.4382952050464732  0.8667204182536349  0.7774518307401164  1.0000
  C   C48       1.0  0.5617047954345388  0.13327958246580976  0.22254816904667296  1.0000
  C   C49       1.0  0.37997125132155596  0.9514964240009472  0.7301225058643207  1.0000
  C   C50       1.0  0.6200287488614613  0.048503575650647175  0.26987749430786967  1.0000
  C   C51       1.0  0.2512473345647533  0.8915113578054217  0.6314496371997578  1.0000
  C   C52       1.0  0.7487526646339078  0.1084886418484851  0.36855036279166714  1.0000
  C   C53       1.0  0.17858594114086726  0.7480501698924338  0.5796861529113847  1.0000
  C   C54       1.0  0.82141405904215  0.25194982975916064  0.42031384726080573  1.0000
  C   C55       1.0  0.23499739371276251  0.6640877241707559  0.6277325119694959  1.0000
  C   C56       1.0  0.7650026057826756  0.3359122765597058  0.3722674885175564  1.0000
  C   C57       1.0  0.36378456717004654  0.7227570113986528  0.7253619533997665  1.0000
  C   C58       1.0  0.6362154330129708  0.2772429882529417  0.2746380467724239  1.0000
  C   C59       1.0  0.8663675723702398  0.8832959169363316  0.08362743233770453  1.0000
  C   C60       1.0  0.1336324268296389  0.11670408270887042  0.9163725667726915  1.0000
  N   N1        1.0  0.6644517875106917  0.05415956959216553  0.9272646270644698  1.0000
  N   N2        1.0  0.33554821198596424  0.9458404311295916  0.07273537254155395  1.0000
  N   N3        1.0  0.6389665911810675  0.8511529298871455  0.9285870730490307  1.0000
  N   N4        1.0  0.3610334083143707  0.1488470708433161  0.07141292743802179  1.0000
  O   O1        1.0  0.6050702628254928  0.259306141788432  0.8891234726496173  1.0000
  O   O2        1.0  0.39492973765430156  0.7406938589397173  0.11087652801820054  1.0000
  O   O3        1.0  0.5096981304918052  0.602600559084141  0.9383009887122952  1.0000
  O   O4        1.0  0.49030186969242967  0.39739944055874876  0.06169901057886657  1.0000
