data_image0
_chemical_formula_structural       H90C58N12O8Cl4Br10
_chemical_formula_sum              "H90 C58 N12 O8 Cl4 Br10"
_cell_length_a       7.363936742619049
_cell_length_b       14.35370712124959
_cell_length_c       17.653397785537624
_cell_angle_alpha    88.89152856276436
_cell_angle_beta     80.3514226195942
_cell_angle_gamma    84.42763202712833

_space_group_name_H-M_alt    "P 1"
_space_group_IT_number       1

loop_
  _space_group_symop_operation_xyz
  'x, y, z'

loop_
  _atom_site_type_symbol
  _atom_site_label
  _atom_site_symmetry_multiplicity
  _atom_site_fract_x
  _atom_site_fract_y
  _atom_site_fract_z
  _atom_site_occupancy
  H   H1        1.0  0.5594093239528202  0.9143501661097323  0.7381161640003997  1.0000
  H   H2        1.0  0.4405906757212612  0.0856498337942486  0.2618838355714172  1.0000
  H   H3        1.0  0.08680231692079855  0.6157469889198128  0.11896525141869076  1.0000
  H   H4        1.0  0.9131976827532828  0.384253010984168  0.8810347481531262  1.0000
  H   H5        1.0  0.9769662082247451  0.9206703943463266  0.8087522419320825  1.0000
  H   H6        1.0  0.0230337914493362  0.0793296055576544  0.1912477576397344  1.0000
  H   H7        1.0  0.028346700652878743  0.6515677925486723  0.39575467804445297  1.0000
  H   H8        1.0  0.9716532990212023  0.3484322073553087  0.6042453215273641  1.0000
  H   H9        1.0  0.42647349856518846  0.9847767184928907  0.8564644915615923  1.0000
  H   H10       1.0  0.5735265008801299  0.015223281408856952  0.14353550858481814  1.0000
  H   H11       1.0  0.2573888087547805  0.8955684792234975  0.9593013552937535  1.0000
  H   H12       1.0  0.742611190690538  0.10443152067825018  0.04069864485265689  1.0000
  H   H13       1.0  0.24245212026095533  0.5929079335952882  0.8308744124576952  1.0000
  H   H14       1.0  0.7575478791843632  0.40709206630645955  0.16912558768871522  1.0000
  H   H15       1.0  0.3705240859100085  0.5368409159974115  0.7023117051360958  1.0000
  H   H16       1.0  0.62947591353531  0.4631590839043361  0.29768829501031474  1.0000
  H   H17       1.0  0.6177936809508643  0.796274990112115  0.6484709786588745  1.0000
  H   H18       1.0  0.3822063184944543  0.20372500978963262  0.351529021487536  1.0000
  H   H19       1.0  0.05821519762137008  0.8295975400415583  0.010342464550384078  1.0000
  H   H20       1.0  0.9417848018239483  0.17040245986018931  0.9896575355960263  1.0000
  H   H21       1.0  0.9699977124782834  0.7191742388828163  0.027921670529672118  1.0000
  H   H22       1.0  0.03000228683822241  0.2808257617189207  0.9720783296167717  1.0000
  H   H23       1.0  0.3124741361398918  0.7768108384249293  0.08778840811696403  1.0000
  H   H24       1.0  0.6875258633054269  0.2231891614768183  0.9122115920294465  1.0000
  H   H25       1.0  0.08426214368327259  0.7758644616007914  0.14197119681855547  1.0000
  H   H26       1.0  0.9157378556332331  0.22413553900094557  0.8580288033278883  1.0000
  H   H27       1.0  0.37180286704522614  0.5841759717488353  0.9211215688015378  1.0000
  H   H28       1.0  0.6281971322712797  0.41582402885290176  0.07887843134490582  1.0000
  H   H29       1.0  0.13781208776046544  0.575708102783273  0.9661654447251707  1.0000
  H   H30       1.0  0.8621879129146491  0.42429189781656523  0.03383455542056076  1.0000
  H   H31       1.0  0.476673671418144  0.6197585544678719  0.03673012033527101  1.0000
  H   H32       1.0  0.5233263282559374  0.38024144543610894  0.9632698792365461  1.0000
  H   H33       1.0  0.3459296841983799  0.5192694705384013  0.054310238862079335  1.0000
  H   H34       1.0  0.6540703166055473  0.48073052936144745  0.9456897612836189  1.0000
  H   H35       1.0  0.4447512920964375  0.6432346297650109  0.16863958713152188  1.0000
  H   H36       1.0  0.5552487089362528  0.35676537013707116  0.8313604124395828  1.0000
  H   H37       1.0  0.3132402483839562  0.5452798527470235  0.18675678898740058  1.0000
  H   H38       1.0  0.6867597510613622  0.45472014715472414  0.8132432111590099  1.0000
  H   H39       1.0  0.19335478576408013  0.7446192526030831  0.2467745935086972  1.0000
  H   H40       1.0  0.8066452139100012  0.2553807473008979  0.7532254060631197  1.0000
  H   H41       1.0  0.04616178570571377  0.6511863413046911  0.2588454955593037  1.0000
  H   H42       1.0  0.953838214969401  0.348813659295147  0.7411545045864277  1.0000
  H   H43       1.0  0.41968318017495715  0.6493175930773467  0.31771216014266734  1.0000
  H   H44       1.0  0.5803168208577332  0.3506824068247353  0.6822878394284373  1.0000
  H   H45       1.0  0.27510621219853626  0.555367081926507  0.3240850010987703  1.0000
  H   H46       1.0  0.7248937888341539  0.4446329179755751  0.6759149984723344  1.0000
  H   H47       1.0  0.9207526987116542  0.7636522044709368  0.8009955743672176  1.0000
  H   H48       1.0  0.07924730209227292  0.23634779542891193  0.19900442577848076  1.0000
  H   H49       1.0  0.9913196367008124  0.6810825849106326  0.6782707695083536  1.0000
  H   H50       1.0  0.00868036284445644  0.3189174156933377  0.3217292300634966  1.0000
  H   H51       1.0  0.2984926544701869  0.9148212336030666  0.5054837820255995  1.0000
  H   H52       1.0  0.7015073462049277  0.08517876699677163  0.4945162181201321  1.0000
  H   H53       1.0  0.3618378207875051  0.07424962860739799  0.5260248328509206  1.0000
  H   H54       1.0  0.6381621788865763  0.925750371296583  0.47397516672089635  1.0000
  H   H55       1.0  0.11178954384757467  0.059278736013312065  0.7651040297544563  1.0000
  H   H56       1.0  0.8882104555977438  0.9407212638884355  0.2348959703919541  1.0000
  H   H57       1.0  0.9797024298107158  0.6388776985130737  0.5433091456957336  1.0000
  H   H58       1.0  0.020297569634602556  0.3611223013886739  0.45669085445067686  1.0000
  H   H59       1.0  0.18628821301639797  0.6220987531210347  0.5832790013109374  1.0000
  H   H60       1.0  0.8137117877875293  0.37790124677881415  0.4167209988347609  1.0000
  H   H61       1.0  0.22103784050205194  0.546513151911598  0.4570187170203483  1.0000
  H   H62       1.0  0.7789621591720294  0.45348684799238287  0.5429812825514686  1.0000
  H   H63       1.0  0.38261177469888064  0.6314664781929272  0.45733715013175547  1.0000
  H   H64       1.0  0.6173882263338096  0.36853352170915493  0.5426628494393493  1.0000
  H   H65       1.0  0.9112963446854615  0.791499701047759  0.4801562080326528  1.0000
  H   H66       1.0  0.08870365498861987  0.20850029885622196  0.519843791539164  1.0000
  H   H67       1.0  0.056349451429902116  0.8828011873497307  0.48103445270021733  1.0000
  H   H68       1.0  0.9436505480154163  0.11719881255201696  0.5189655474461932  1.0000
  H   H69       1.0  0.10653557615926097  0.8072340091555916  0.3542983503713074  1.0000
  H   H70       1.0  0.8934644232860575  0.19276599074615597  0.6457016497751031  1.0000
  H   H71       1.0  0.3125109027707804  0.7890415940783339  0.3952059581259293  1.0000
  H   H72       1.0  0.6874890980331468  0.21095840582151495  0.604794042019769  1.0000
  H   H73       1.0  0.31783968137264595  0.9137869593822511  0.17489678959229635  1.0000
  H   H74       1.0  0.6821603194312814  0.0862130405175976  0.8251032105534019  1.0000
  H   H75       1.0  0.36552394027012775  0.9116234349562865  0.259897379165594  1.0000
  H   H76       1.0  0.6344760590463782  0.08837656564545046  0.7401026209808497  1.0000
  H   H77       1.0  0.7276083925609012  0.7464506535665105  0.15088658549961964  1.0000
  H   H78       1.0  0.27239160688441727  0.253549346335237  0.8491134146467909  1.0000
  H   H79       1.0  0.5662335576664309  0.8392265105334739  0.1746532735261531  1.0000
  H   H80       1.0  0.4337664431374963  0.1607734893663749  0.8253467266195451  1.0000
  H   H81       1.0  0.6771760983179085  0.821615424152479  0.07991389348538884  1.0000
  H   H82       1.0  0.32282390099859726  0.17838457644925787  0.920086106661055  1.0000
  H   H83       1.0  0.31501160677528006  0.2283185340111028  0.026317528341763183  1.0000
  H   H84       1.0  0.6849883926700384  0.7716814658906448  0.9736824718046474  1.0000
  H   H85       1.0  0.3109742553972528  0.11691519411169683  0.02360988968965076  1.0000
  H   H86       1.0  0.6890257454066744  0.883084805788152  0.9763901104560475  1.0000
  H   H87       1.0  0.10087825041250517  0.4275445311071236  0.21939123500880323  1.0000
  H   H88       1.0  0.8991217489040007  0.5724554694946135  0.7806087651376404  1.0000
  H   H89       1.0  0.9885010653204545  0.486488249997822  0.2899879285607412  1.0000
  H   H90       1.0  0.011498934353627078  0.5135117499061589  0.7100120710110757  1.0000
  C   C1        1.0  0.4066888027649785  0.9118697235138911  0.8481463620058977  1.0000
  C   C2        1.0  0.5933111965515275  0.08813027708784586  0.151853638140546  1.0000
  C   C3        1.0  0.3097706805856461  0.8607152937510382  0.9048541917612827  1.0000
  C   C4        1.0  0.6902293189596227  0.13928470685293212  0.09514580781056746  1.0000
  C   C5        1.0  0.29813198329768764  0.763939284723474  0.8949773325239656  1.0000
  C   C6        1.0  0.7018680161476307  0.23606071517827357  0.10502266762244483  1.0000
  C   C7        1.0  0.3683880104424479  0.7251710329561556  0.8192984711837016  1.0000
  C   C8        1.0  0.6316119905902424  0.2748289669459265  0.18070152838740305  1.0000
  C   C9        1.0  0.3330347691735042  0.6366704486210193  0.7940120529319743  1.0000
  C   C10       1.0  0.6669652302718142  0.3633295512807283  0.20598794721443617  1.0000
  C   C11       1.0  0.4037700087516227  0.6043687804314177  0.7207442726021867  1.0000
  C   C12       1.0  0.5962299919234919  0.3956312201684203  0.27925572754354483  1.0000
  C   C13       1.0  0.5116972993050913  0.661169423946508  0.669151288910516  1.0000
  C   C14       1.0  0.48830270014022714  0.3388305759552396  0.3308487112358945  1.0000
  C   C15       1.0  0.5420939992174374  0.7500582836578994  0.6892518346082425  1.0000
  C   C16       1.0  0.4579060014576772  0.24994171694193862  0.31074816553748913  1.0000
  C   C17       1.0  0.46854907063228973  0.7826025526451963  0.7636089405899243  1.0000
  C   C18       1.0  0.5314509288130288  0.21739744725655133  0.23639105955648615  1.0000
  C   C19       1.0  0.0969590547497635  0.7556208952586273  0.020684323086439995  1.0000
  C   C20       1.0  0.903040944924318  0.2443791046453536  0.9793156764853769  1.0000
  C   C21       1.0  0.18173141291334496  0.744685369000198  0.09338967997594654  1.0000
  C   C22       1.0  0.8182685877617695  0.25531463159964013  0.9066103201697849  1.0000
  C   C23       1.0  0.26236784070420593  0.6123086205513695  0.966765204301474  1.0000
  C   C24       1.0  0.7376321587411124  0.3876913793503781  0.033234795844936556  1.0000
  C   C25       1.0  0.33866804894278757  0.5947184877697935  0.041499211920296625  1.0000
  C   C26       1.0  0.6613319518611396  0.40528151213005525  0.9585007882254017  1.0000
  C   C27       1.0  0.30350498620329064  0.6217335884886697  0.18012481803268973  1.0000
  C   C28       1.0  0.6964950148293996  0.3782664114134125  0.819875181538415  1.0000
  C   C29       1.0  0.190726223608218  0.6683630767564478  0.25171796522994283  1.0000
  C   C30       1.0  0.8092737771957089  0.3316369231434012  0.7482820349157554  1.0000
  C   C31       1.0  0.2765228999423471  0.63170424494046  0.3205320552646782  1.0000
  C   C32       1.0  0.7234770993741587  0.368295755661277  0.6794679448817657  1.0000
  C   C33       1.0  0.9897301801785748  0.7975874008417906  0.7494657481817921  1.0000
  C   C34       1.0  0.010269819137930737  0.20241259975994638  0.2505342519646516  1.0000
  C   C35       1.0  0.0310483313986716  0.7521601332011241  0.679559174372579  1.0000
  C   C36       1.0  0.9689516680466468  0.24783986670062352  0.32044082577383154  1.0000
  C   C37       1.0  0.10420139386496229  0.8003452600912101  0.6131001576641125  1.0000
  C   C38       1.0  0.8957986069389651  0.1996547398086388  0.3868998424815857  1.0000
  C   C39       1.0  0.15498712362231662  0.8935630723577661  0.6220999699014067  1.0000
  C   C40       1.0  0.8450128771816109  0.10643692754208266  0.3779000302442915  1.0000
  C   C41       1.0  0.2507316989111862  0.9454488178145515  0.5620698815535603  1.0000
  C   C42       1.0  0.7492683018927411  0.05455118208529729  0.43793011859213793  1.0000
  C   C43       1.0  0.28921940406203134  0.03558322493230065  0.5734051296546021  1.0000
  C   C44       1.0  0.7107805952544746  0.9644167756694362  0.4265948704918415  1.0000
  C   C45       1.0  0.23606897436104307  0.07694758544646131  0.6464710935299813  1.0000
  C   C46       1.0  0.7639310264428844  0.9230524144533873  0.3535289066157169  1.0000
  C   C47       1.0  0.14959612061906144  0.02815414112204263  0.7081141399513207  1.0000
  C   C48       1.0  0.8504038801848657  0.9718458587778062  0.29188586019437757  1.0000
  C   C49       1.0  0.10977748982852753  0.9361827077428572  0.695911152094955  1.0000
  C   C50       1.0  0.890222509616791  0.06381729215889027  0.3040888480514554  1.0000
  C   C51       1.0  0.12331643455042351  0.6576917103217889  0.5373113574789654  1.0000
  C   C52       1.0  0.8766835648948951  0.3423082895799587  0.462688642667445  1.0000
  C   C53       1.0  0.23514071822488689  0.6212896267739879  0.46185422171382123  1.0000
  C   C54       1.0  0.7648592812204315  0.3787103731277598  0.5381457784325894  1.0000
  C   C55       1.0  0.05647503383101366  0.8069136067672129  0.4775438156609868  1.0000
  C   C56       1.0  0.943524966844101  0.19308639383262527  0.5224561844847447  1.0000
  C   C57       1.0  0.16771204611208018  0.77333380057241  0.4013028862619445  1.0000
  C   C58       1.0  0.8322879533332384  0.2266661993293376  0.598697113884466  1.0000
  N   N1        1.0  0.48848937898105954  0.8734792605550601  0.7808277432091388  1.0000
  N   N2        1.0  0.511510620464259  0.12652073934668748  0.21917225693727163  1.0000
  N   N3        1.0  0.22007801159078227  0.7126094554106569  0.9546775615676558  1.0000
  N   N4        1.0  0.779921988083299  0.2873905444933241  0.045322438004161136  1.0000
  N   N5        1.0  0.21903663257711387  0.6424804908450349  0.10937221382834186  1.0000
  N   N6        1.0  0.7809633682268136  0.35751950905481394  0.8906277863173564  1.0000
  N   N7        1.0  0.025688086890828847  0.8863972121919349  0.756735583113478  1.0000
  N   N8        1.0  0.9743119125544897  0.1136027877098127  0.24326441703293245  1.0000
  N   N9        1.0  0.12807161732816397  0.7590079630961318  0.5422379177748661  1.0000
  N   N10       1.0  0.8719283821171544  0.24099203680561584  0.4577620823715445  1.0000
  N   N11       1.0  0.16683641494383147  0.6695931778046951  0.3945515981489771  1.0000
  N   N12       1.0  0.8331635847302499  0.330406822099286  0.6054484014228398  1.0000
  O   O1        1.0  0.3822373403395448  0.8739963065688842  0.21126922732830344  1.0000
  O   O2        1.0  0.6177626591057735  0.1260036933328634  0.7887307728181071  1.0000
  O   O3        1.0  0.6951575099377569  0.8157940867119062  0.14054010106702897  1.0000
  O   O4        1.0  0.3048424908661704  0.1842059131879425  0.8594598990786693  1.0000
  O   O5        1.0  0.35924167639000715  0.17140223992225725  0.9935176967750785  1.0000
  O   O6        1.0  0.6407583230553113  0.8285977599794905  0.006482303371332102  1.0000
  O   O7        1.0  0.1018957029296171  0.4450499568607316  0.27288497470226863  1.0000
  O   O8        1.0  0.8981042965157013  0.554950043041016  0.7271150254441419  1.0000
  Cl  Cl1       1.0  0.6008006843787244  0.6230328878951078  0.5769446091257618  1.0000
  Cl  Cl2       1.0  0.39919931665396574  0.37696711200697425  0.42305539044534285  1.0000
  Cl  Cl3       1.0  0.2794963622469126  0.19165493151586235  0.6575492478823471  1.0000
  Cl  Cl4       1.0  0.7205036385570147  0.8083450683839865  0.34245075226335103  1.0000
  Br  Br1       1.0  0.3017193433678426  0.004308719183924213  0.35803448911526353  1.0000
  Br  Br2       1.0  0.6982806576648475  0.9956912807181578  0.6419655104558413  1.0000
  Br  Br3       1.0  0.21458678233843748  0.42155298255331713  0.6072985966402878  1.0000
  Br  Br4       1.0  0.785413217106881  0.5784470173484305  0.39270140350612254  1.0000
  Br  Br5       1.0  0.7976147981959193  0.6011769767647671  0.1533946981137259  1.0000
  Br  Br6       1.0  0.20238520112058653  0.39882302383696977  0.8466053020327179  1.0000
  Br  Br7       1.0  0.17935836595898785  0.9993589372088773  0.09016461232803356  1.0000
  Br  Br8       1.0  0.8206416334863305  0.0006410626928703783  0.9098353878183769  1.0000
  Br  Br9       1.0  0.21661900032103443  0.35442185649079666  0.09413720581982822  1.0000
  Br  Br10      1.0  0.7833809993530468  0.6455781434131842  0.9058627937519887  1.0000
