data_image0
_chemical_formula_structural       H34B4C134N8O8F66
_chemical_formula_sum              "H34 B4 C134 N8 O8 F66"
_cell_length_a       13.451687665094843
_cell_length_b       14.159514665868809
_cell_length_c       15.807627790202133
_cell_angle_alpha    85.8797559666635
_cell_angle_beta     84.88689635390652
_cell_angle_gamma    88.41278784523256

_space_group_name_H-M_alt    "P 1"
_space_group_IT_number       1

loop_
  _space_group_symop_operation_xyz
  'x, y, z'

loop_
  _atom_site_type_symbol
  _atom_site_label
  _atom_site_symmetry_multiplicity
  _atom_site_fract_x
  _atom_site_fract_y
  _atom_site_fract_z
  _atom_site_occupancy
  H   H1        1.0  0.31852114037202195  0.16100387542161823  0.9121060577765742  1.0000
  H   H2        1.0  0.6814788593344784  0.8389961243796902  0.08789394257591956  1.0000
  H   H3        1.0  0.7146114009939158  0.005795386393455712  0.1202222040050528  1.0000
  H   H4        1.0  0.2853885987781756  0.9942046134576907  0.8797777957107601  1.0000
  H   H5        1.0  0.5652407274953247  0.30619664942434516  0.19317789381597758  1.0000
  H   H6        1.0  0.43475927302015094  0.6938033504262526  0.8068221059001469  1.0000
  H   H7        1.0  0.5851374652518815  0.3779390687789589  0.9227328918929292  1.0000
  H   H8        1.0  0.41486253443452664  0.622060931728825  0.07726710846000193  1.0000
  H   H9        1.0  0.6411541804164841  0.5389661788199664  0.9524616084052744  1.0000
  H   H10       1.0  0.3588458193556075  0.46103382103118  0.04753839131053859  1.0000
  H   H11       1.0  0.6630428958019676  0.5734178650334752  0.10133859998260282  1.0000
  H   H12       1.0  0.3369571039701238  0.42658213481767127  0.8986613997332101  1.0000
  H   H13       1.0  0.06808198339324578  0.6666207258168643  0.32293452420838126  1.0000
  H   H14       1.0  0.9319180171222299  0.3333792740337334  0.6770654755077431  1.0000
  H   H15       1.0  0.9112909886364857  0.5007756288873635  0.7215632017893021  1.0000
  H   H16       1.0  0.08870901181339902  0.49922437091339594  0.27843679856350323  1.0000
  H   H17       1.0  0.8043737933722422  0.8088306485529296  0.6285813561126014  1.0000
  H   H18       1.0  0.19562620639984926  0.1911693512982168  0.37141864360321164  1.0000
  H   H19       1.0  0.1134405860014525  0.8675139757741231  0.5551023099199314  1.0000
  H   H20       1.0  0.8865594137050479  0.13248602402718507  0.4448976904325624  1.0000
  H   H21       1.0  0.08075989007694288  0.03149813793460009  0.6059073383270935  1.0000
  H   H22       1.0  0.9192401103729417  0.9685018618661594  0.39409266202571175  1.0000
  H   H23       1.0  0.9107051077445787  0.07424040439148123  0.6663536891956107  1.0000
  H   H24       1.0  0.0892948926852138  0.925759596115754  0.3336463111576319  1.0000
  H   H25       1.0  0.09465404359932049  0.8824648672607717  0.04182565283298646  1.0000
  H   H26       1.0  0.9053459569161554  0.11753513258982612  0.9581743468831379  1.0000
  H   H27       1.0  0.19944128863313973  0.755755095621176  0.9751531017423399  1.0000
  H   H28       1.0  0.8005587111389517  0.2442449042299705  0.024846897973473035  1.0000
  H   H29       1.0  0.16663273694607775  0.586292775195724  0.01944352162930981  1.0000
  H   H30       1.0  0.8333672627604226  0.41370722460558423  0.9805564787231841  1.0000
  H   H31       1.0  0.028382728705121592  0.5433990552543414  0.12892239426814345  1.0000
  H   H32       1.0  0.9716172717246708  0.45660094525289385  0.871077606085099  1.0000
  H   H33       1.0  0.9229619809391285  0.669678899204416  0.1951578449340916  1.0000
  H   H34       1.0  0.07703801876737179  0.33032110059689207  0.8048421554184022  1.0000
  B   B1        1.0  0.6437390877394992  0.45590690829281205  0.2480265744161402  1.0000
  B   B2        1.0  0.3562609120125004  0.5440930922648101  0.75197342530011  1.0000
  B   B3        1.0  0.7432428575694101  0.9666933227656684  0.6981096182457245  1.0000
  B   B4        1.0  0.2567571421370902  0.03330667703563977  0.30189038210676944  1.0000
  C   C1        1.0  0.4657329011104386  0.22050258103277762  0.9953925240012748  1.0000
  C   C2        1.0  0.5342670986616529  0.779497418818369  0.00460747571453827  1.0000
  C   C3        1.0  0.44616699616822736  0.12167468297152252  0.9795827341204338  1.0000
  C   C4        1.0  0.5538330035181808  0.8783253175362614  0.02041726623249726  1.0000
  C   C5        1.0  0.36601164805197384  0.10251103546244357  0.9341827530052315  1.0000
  C   C6        1.0  0.6339883516545265  0.8974889643388647  0.06581724734726241  1.0000
  C   C7        1.0  0.6525973204048776  0.9906322290253182  0.08377091458691877  1.0000
  C   C8        1.0  0.34740268011059816  0.009367770825279535  0.9162290851292056  1.0000
  C   C9        1.0  0.5909038909821067  0.0647612785922711  0.055978772413786175  1.0000
  C   C10       1.0  0.4090961087043014  0.9352387219155128  0.9440212279391449  1.0000
  C   C11       1.0  0.6113166056288657  0.162038423964584  0.07568444258836828  1.0000
  C   C12       1.0  0.38868339414322584  0.8379615758865625  0.9243155571274446  1.0000
  C   C13       1.0  0.5093623315298107  0.04724697905624182  0.009073799957442919  1.0000
  C   C14       1.0  0.4906376682422808  0.9527530207949046  0.99092619975837  1.0000
  C   C15       1.0  0.5814760925376108  0.35541445548741096  0.13797908513793858  1.0000
  C   C16       1.0  0.4185239071688895  0.6445855443138974  0.8620209152145553  1.0000
  C   C17       1.0  0.5718664612944576  0.3301474808171524  0.056176970302401597  1.0000
  C   C18       1.0  0.42813353913533486  0.6698525196900827  0.943823030050841  1.0000
  C   C19       1.0  0.5927122890873688  0.39614504090551267  0.9873094071381575  1.0000
  C   C20       1.0  0.4072877106646305  0.6038549596521094  0.012690592578092637  1.0000
  C   C21       1.0  0.6242824104758868  0.4850747908826662  0.003623789127352642  1.0000
  C   C22       1.0  0.37571758997399773  0.5149252089180933  0.9963762112254527  1.0000
  C   C23       1.0  0.635736477334152  0.5056642664767693  0.08659231635882177  1.0000
  C   C24       1.0  0.3642635224379395  0.4943357333743771  0.9134076833569913  1.0000
  C   C25       1.0  0.7414117631840346  0.3829730012338843  0.2472154318905342  1.0000
  C   C26       1.0  0.25858823658805696  0.6170269986172623  0.7527845678252788  1.0000
  C   C27       1.0  0.7385485330175321  0.2886446886627917  0.27954810766159793  1.0000
  C   C28       1.0  0.2614514666688762  0.7113553118449922  0.7204518926913333  1.0000
  C   C29       1.0  0.8160943195550904  0.2228498212099681  0.26435593186801093  1.0000
  C   C30       1.0  0.18390568096038534  0.7771501786406296  0.7356440678481134  1.0000
  C   C31       1.0  0.9018451056967767  0.25012712106517093  0.21384739142266673  1.0000
  C   C32       1.0  0.09815489400972362  0.7498728787361373  0.7861526089298271  1.0000
  C   C33       1.0  0.9085868197475507  0.3434332450298019  0.1795139161488194  1.0000
  C   C34       1.0  0.09141317993885759  0.656566755477982  0.8204860842041117  1.0000
  C   C35       1.0  0.8287959402629038  0.406191555264183  0.19598358286606857  1.0000
  C   C36       1.0  0.17120405944359648  0.5938084445371253  0.8040164174864253  1.0000
  C   C37       1.0  0.6652128248501064  0.5665851649349194  0.2614971288070338  1.0000
  C   C38       1.0  0.334787174856394  0.4334148348663888  0.7385028715454601  1.0000
  C   C39       1.0  0.7459712378888095  0.5975976274977532  0.3013034696763176  1.0000
  C   C40       1.0  0.25402876186319  0.40240237305986887  0.6986965300399325  1.0000
  C   C41       1.0  0.7578720904798915  0.6917657246591916  0.31811305643606724  1.0000
  C   C42       1.0  0.2421279092922  0.30823427519195484  0.6818869432797459  1.0000
  C   C43       1.0  0.6870662472093552  0.7604542740760727  0.295691655546291  1.0000
  C   C44       1.0  0.31293375249714517  0.2395457257252355  0.7043083448062029  1.0000
  C   C45       1.0  0.6038616922696842  0.7326715041464387  0.25803243483210614  1.0000
  C   C46       1.0  0.3961383074167239  0.2673284963613453  0.741967565520825  1.0000
  C   C47       1.0  0.5946796374757337  0.637810023376271  0.24274676328002423  1.0000
  C   C48       1.0  0.40532036221067447  0.362189977131513  0.7572532370729069  1.0000
  C   C49       1.0  0.5504373405181168  0.42731466473493074  0.3176934511041786  1.0000
  C   C50       1.0  0.44956265916829147  0.5726853357728533  0.6823065492487524  1.0000
  C   C51       1.0  0.5687553683706474  0.41061912430609127  0.4033064166568643  1.0000
  C   C52       1.0  0.43124463131576074  0.5893808762016927  0.5966935836960668  1.0000
  C   C53       1.0  0.4952355561473859  0.38692881516268196  0.46839372829215664  1.0000
  C   C54       1.0  0.5047644443479977  0.6130711853943914  0.531606271424405  1.0000
  C   C55       1.0  0.3965073149531028  0.3824003360436522  0.44862529782901783  1.0000
  C   C56       1.0  0.6034926847533975  0.6175996637576561  0.551374702523476  1.0000
  C   C57       1.0  0.373740355183231  0.402193491596637  0.3650504074466579  1.0000
  C   C58       1.0  0.6262596445232692  0.5978065082046712  0.634949592905836  1.0000
  C   C59       1.0  0.4501375430232151  0.424258530803568  0.3017038057834578  1.0000
  C   C60       1.0  0.5498624574721684  0.5757414697535055  0.6982961939331039  1.0000
  C   C61       1.0  0.008143017319411354  0.7215950954761966  0.4766193525334018  1.0000
  C   C62       1.0  0.9918569824526801  0.27840490437494986  0.5233806471824112  1.0000
  C   C63       1.0  0.018993240902313233  0.6233095005471134  0.4519721945402893  1.0000
  C   C64       1.0  0.9810067588496861  0.37669050001050874  0.548027805175961  1.0000
  C   C65       1.0  0.0516599472277349  0.6064376082180462  0.3684388402332767  1.0000
  C   C66       1.0  0.9483400525242646  0.3935623923395761  0.6315611594829734  1.0000
  C   C67       1.0  0.9378213925943399  0.4865032733972409  0.6565015935950087  1.0000
  C   C68       1.0  0.06217860790104369  0.5134967271598326  0.343498406121553  1.0000
  C   C69       1.0  0.961007395504266  0.5624142080083  0.5980355286259936  1.0000
  C   C70       1.0  0.03899260501120973  0.4375857918422976  0.4019644710901308  1.0000
  C   C71       1.0  0.9492314719372917  0.6593597351977444  0.6257108841473814  1.0000
  C   C72       1.0  0.05076852781470768  0.34064026535987774  0.3742891155688688  1.0000
  C   C73       1.0  0.9950548791064224  0.5471564423398918  0.5127039393266728  1.0000
  C   C74       1.0  0.004945120645577033  0.45284355821773054  0.4872960603895774  1.0000
  C   C75       1.0  0.8669267372553086  0.8564977104427014  0.6212710258527191  1.0000
  C   C76       1.0  0.13307326319457594  0.14350228935805817  0.3787289745000862  1.0000
  C   C77       1.0  0.9603761306105844  0.8278170947682688  0.5876412473347293  1.0000
  C   C78       1.0  0.03962386983930018  0.1721829050324907  0.41235875301807595  1.0000
  C   C79       1.0  0.039698297239284426  0.8899475693536583  0.5808212679402226  1.0000
  C   C80       1.0  0.9603017032761914  0.11005243049693951  0.4191787317759018  1.0000
  C   C81       1.0  0.021739632814445475  0.9801601098512884  0.6087952624492493  1.0000
  C   C82       1.0  0.978260366892055  0.01983988995001992  0.39120473790324445  1.0000
  C   C83       1.0  0.9268105548628078  0.005140600957050887  0.6424394705974847  1.0000
  C   C84       1.0  0.07318944565266788  0.9948593988935469  0.35756052911863967  1.0000
  C   C85       1.0  0.7533212642255707  0.8981815342788214  0.7851842715162238  1.0000
  C   C86       1.0  0.24667873548092967  0.10181846552248681  0.21481572883626993  1.0000
  C   C87       1.0  0.8185612002493261  0.9216299157813672  0.8438747577786447  1.0000
  C   C88       1.0  0.18143880024605763  0.07837008477570626  0.15612524193791702  1.0000
  C   C89       1.0  0.8418588715103562  0.8630888455087744  0.9141517021803828  1.0000
  C   C90       1.0  0.15814112891943619  0.1369111549984609  0.08584829817285972  1.0000
  C   C91       1.0  0.8030229812146209  0.7724370560727725  0.9258893797473081  1.0000
  C   C92       1.0  0.19697701855747063  0.22756294377837397  0.07411061996850475  1.0000
  C   C93       1.0  0.7406899374810343  0.7442112506122562  0.8671240203103319  1.0000
  C   C94       1.0  0.2593100630344413  0.2557887492383415  0.1328759794057924  1.0000
  C   C95       1.0  0.7158164135532373  0.8069025267763495  0.7998297727524439  1.0000
  C   C96       1.0  0.28418358689664736  0.19309747302441  0.20017022760036143  1.0000
  C   C97       1.0  0.7306493826341351  0.08042083438168385  0.7082096056869439  1.0000
  C   C98       1.0  0.2693506171379564  0.9195791654694627  0.2917903940288691  1.0000
  C   C99       1.0  0.7436365615349421  0.1423919301294109  0.6352488374232749  1.0000
  C   C100      1.0  0.25636343815146617  0.857608070378373  0.3647511629296562  1.0000
  C   C101      1.0  0.7332878187311297  0.24054754547437132  0.6347829889220996  1.0000
  C   C102      1.0  0.2667121809753706  0.7594524543269369  0.3652170114303943  1.0000
  C   C103      1.0  0.7073551941040724  0.2814896576124158  0.7115222923528679  1.0000
  C   C104      1.0  0.29264480566801915  0.7185103422387307  0.28847770736294515  1.0000
  C   C105      1.0  0.690716919181341  0.22241566544175187  0.7854513210926328  1.0000
  C   C106      1.0  0.3092830805050672  0.7775843350660322  0.2145486792602983  1.0000
  C   C107      1.0  0.7010807275303635  0.12451751061098315  0.7828261140942031  1.0000
  C   C108      1.0  0.29891927217613684  0.8754824891903251  0.21717388625829073  1.0000
  C   C109      1.0  0.6489561277379444  0.9396205590915697  0.6470571143018181  1.0000
  C   C110      1.0  0.3510438726918481  0.06037944141566555  0.3529428860514244  1.0000
  C   C111      1.0  0.6468337450734133  0.914374857433548  0.563563922334527  1.0000
  C   C112      1.0  0.3531662553764713  0.08562514236721148  0.4364360780182783  1.0000
  C   C113      1.0  0.5588231955762378  0.8932858384600233  0.5288260652589132  1.0000
  C   C114      1.0  0.4411768041958537  0.10671416139112316  0.4711739344568997  1.0000
  C   C115      1.0  0.4673082237870527  0.9021163925920574  0.5764215326960054  1.0000
  C   C116      1.0  0.532691776708331  0.09788360796501594  0.4235784670205563  1.0000
  C   C117      1.0  0.4653265938330385  0.9304111150188442  0.6592088923928886  1.0000
  C   C118      1.0  0.5346734066824372  0.06958888483175352  0.3407911073232358  1.0000
  C   C119      1.0  0.5551017192324371  0.9466948604312386  0.6920921463477516  1.0000
  C   C120      1.0  0.4448982804740632  0.053305139370069456  0.30790785400474224  1.0000
  C   C121      1.0  0.003625967127415366  0.7838849385212101  0.12342283749069494  1.0000
  C   C122      1.0  0.9963740325790847  0.2161150612800982  0.876577162861799  1.0000
  C   C123      1.0  0.0813416745334553  0.808341140785108  0.061743547765711754  1.0000
  C   C124      1.0  0.9186583259164293  0.19165885901565147  0.9382564525870936  1.0000
  C   C125      1.0  0.14013098659649878  0.7369407021867129  0.024524559616403308  1.0000
  C   C126      1.0  0.8598690138533858  0.2630592976140467  0.975475440736402  1.0000
  C   C127      1.0  0.12154076455656948  0.6419817816181107  0.049271462164532945  1.0000
  C   C128      1.0  0.8784592351298387  0.3580182188896732  0.9507285381883981  1.0000
  C   C129      1.0  0.044066441587959984  0.6176381444925377  0.11120606325747555  1.0000
  C   C130      1.0  0.9559335580984484  0.3823618560152462  0.8887939370954556  1.0000
  C   C131      1.0  0.9849089827058772  0.6885678620923923  0.1483495506238796  1.0000
  C   C132      1.0  0.015091017000623097  0.3114321377089161  0.8516504497286141  1.0000
  C   C133      1.0  0.9369644180982852  0.8585233261651417  0.1631331404312998  1.0000
  C   C134      1.0  0.06303558160821503  0.14147667363616656  0.8368668599211939  1.0000
  N   N1        1.0  0.5466521006656377  0.23477265811069717  0.04401377760873925  1.0000
  N   N2        1.0  0.4533478997842469  0.7652273416900623  0.9559862227440661  1.0000
  N   N3        1.0  0.6140268830424839  0.4418137276729825  0.1525348260866279  1.0000
  N   N4        1.0  0.3859731174729918  0.5581862721776154  0.8474651736294965  1.0000
  N   N5        1.0  0.9731778496696343  0.7331898014924783  0.5623348661790151  1.0000
  N   N6        1.0  0.02682215003686595  0.2668101983088299  0.4376651341734788  1.0000
  N   N7        1.0  0.8504761036503935  0.9443920306309784  0.6477910909060309  1.0000
  N   N8        1.0  0.1495238967793988  0.05560796987625683  0.35220890944721156  1.0000
  O   O1        1.0  0.4155562693279609  0.2884059186274351  0.968874395103852  1.0000
  O   O2        1.0  0.5844437303785393  0.7115940811738732  0.031125605248641892  1.0000
  O   O3        1.0  0.6808975340980163  0.1818570265643209  0.11619709144985084  1.0000
  O   O4        1.0  0.31910246641745943  0.8181429732862769  0.8838029082662735  1.0000
  O   O5        1.0  0.027006330262846347  0.7910173275914542  0.42722418528877204  1.0000
  O   O6        1.0  0.9729936701870382  0.20898267220930533  0.5727758150640332  1.0000
  O   O7        1.0  0.9207341771857402  0.6778021079448843  0.6987817300900394  1.0000
  O   O8        1.0  0.07926582258635118  0.32219789190626236  0.3012182696257736  1.0000
  F   F1        1.0  0.6550731151740314  0.2540857159385419  0.3250036708062166  1.0000
  F   F2        1.0  0.34492688527585297  0.7459142838622177  0.6749963295465887  1.0000
  F   F3        1.0  0.8075062469125108  0.1319702991925992  0.2956142598726581  1.0000
  F   F4        1.0  0.1924937527939894  0.868029700608709  0.7043857404798357  1.0000
  F   F5        1.0  0.9756464752002904  0.18627640897147832  0.1969198394890264  1.0000
  F   F6        1.0  0.0243535253151852  0.8137235908791195  0.803080160227098  1.0000
  F   F7        1.0  0.9908248375323463  0.37140028594851343  0.1297470689830108  1.0000
  F   F8        1.0  0.009175162239745257  0.628599713902633  0.8702529307328022  1.0000
  F   F9        1.0  0.8378826951083517  0.49479461997624197  0.1560210326796691  1.0000
  F   F10       1.0  0.16211730540712405  0.5052053798743558  0.8439789670364553  1.0000
  F   F11       1.0  0.8180458484155566  0.5358089564386563  0.3277200506667574  1.0000
  F   F12       1.0  0.18195415207982704  0.4641910441184172  0.6722799490498041  1.0000
  F   F13       1.0  0.8374754801316658  0.7169936776685545  0.35718972221245204  1.0000
  F   F14       1.0  0.16252452031821865  0.28300632213220506  0.6428102781403532  1.0000
  F   F15       1.0  0.6987748784749439  0.8515834419882317  0.3102068512398808  1.0000
  F   F16       1.0  0.3012251212315564  0.1484165578130767  0.689793149112613  1.0000
  F   F17       1.0  0.5328353827199702  0.7976462358612427  0.2373142839573928  1.0000
  F   F18       1.0  0.46716461698653006  0.20235376394006552  0.7626857163951011  1.0000
  F   F19       1.0  0.5099660941863401  0.6151884826877414  0.2080254318417387  1.0000
  F   F20       1.0  0.49003390630904353  0.38481151786933215  0.791974567874823  1.0000
  F   F21       1.0  0.6634960749694592  0.41690016145814374  0.42568780052665034  1.0000
  F   F22       1.0  0.33650392480263225  0.5830998383930028  0.5743121991891625  1.0000
  F   F23       1.0  0.517969941276463  0.36863907527862844  0.5496912829775144  1.0000
  F   F24       1.0  0.4820300592390127  0.6313609245719692  0.45030871673861017  1.0000
  F   F25       1.0  0.32308228464842065  0.359397658547999  0.5098329062643586  1.0000
  F   F26       1.0  0.6769177158014639  0.6406023412527606  0.4901670940884466  1.0000
  F   F27       1.0  0.27783067022517727  0.3995449015214786  0.3461708207070467  1.0000
  F   F28       1.0  0.7221693302702065  0.600455099035595  0.653829179009515  1.0000
  F   F29       1.0  0.42079394850671753  0.4422984082256776  0.22175850489828314  1.0000
  F   F30       1.0  0.5792060519431671  0.5577015915750819  0.7782414954545221  1.0000
  F   F31       1.0  0.8659609909345897  0.005770617491000988  0.8322494654051141  1.0000
  F   F32       1.0  0.13403900883750175  0.9942293823601454  0.16775053431069886  1.0000
  F   F33       1.0  0.9035695908751838  0.892846971697113  0.9689093619202085  1.0000
  F   F34       1.0  0.09643040883131648  0.10715302810419529  0.031090638432285354  1.0000
  F   F35       1.0  0.8261825509317243  0.7129829847083499  0.9919491264018441  1.0000
  F   F36       1.0  0.1738174495181602  0.2870170150924097  0.008050873950961207  1.0000
  F   F37       1.0  0.7054636463819746  0.6553558615154179  0.874734396371378  1.0000
  F   F38       1.0  0.2945363541335012  0.3446441383351799  0.12526560334474643  1.0000
  F   F39       1.0  0.6538007315178128  0.7718197695636312  0.7463012130688648  1.0000
  F   F40       1.0  0.3461992689976629  0.22818023028696657  0.25369878664725964  1.0000
  F   F41       1.0  0.7699273932037068  0.10620602812842493  0.5586490603393617  1.0000
  F   F42       1.0  0.23007260656838474  0.8937939717227216  0.44135093937645126  1.0000
  F   F43       1.0  0.7489220797124492  0.29557714731133894  0.5617135078287896  1.0000
  F   F44       1.0  0.2510779207374354  0.7044228524894205  0.43828649252401575  1.0000
  F   F45       1.0  0.698390994941276  0.37634386706138906  0.7141514969337996  1.0000
  F   F46       1.0  0.30160900476522434  0.6236561327399193  0.2858485034186943  1.0000
  F   F47       1.0  0.6632073684119266  0.26021097821974665  0.8604491222928341  1.0000
  F   F48       1.0  0.33679263210354915  0.7397890216308511  0.13955087742329028  1.0000
  F   F49       1.0  0.6796470956416241  0.07390762363061507  0.858354929342034  1.0000
  F   F50       1.0  0.32035290413046746  0.9260923762205314  0.141645070373779  1.0000
  F   F51       1.0  0.7321850149139925  0.9088545760460528  0.5103004669992914  1.0000
  F   F52       1.0  0.2678149855813912  0.09114542451102059  0.48969953271727024  1.0000
  F   F53       1.0  0.5606881697231163  0.8669135451978769  0.448172362075828  1.0000
  F   F54       1.0  0.4393118307066762  0.13308645530935834  0.5518276382774145  1.0000
  F   F55       1.0  0.38231484034159635  0.8860272085759838  0.5414572070329807  1.0000
  F   F56       1.0  0.6176851601738794  0.11397279127461396  0.4585427926831437  1.0000
  F   F57       1.0  0.37825087086066883  0.9421697431410198  0.7065400511893767  1.0000
  F   F58       1.0  0.6217491295892158  0.057830256659739836  0.2934599491634286  1.0000
  F   F59       1.0  0.5485309600792256  0.9705304581440665  0.7745167204221916  1.0000
  F   F60       1.0  0.4514690396272747  0.029469541657241874  0.2254832799303023  1.0000
  F   F61       1.0  0.9492819190107599  0.9469189534267436  0.12493399839057232  1.0000
  F   F62       1.0  0.05071808069574047  0.05308104637456466  0.8750660019619215  1.0000
  F   F63       1.0  0.8374867127763421  0.8381505656689678  0.16096345863564301  1.0000
  F   F64       1.0  0.16251328697565734  0.1618494348886544  0.8390365410806072  1.0000
  F   F65       1.0  0.9507089542683366  0.8643460418981298  0.24777286063970866  1.0000
  F   F66       1.0  0.04929104624713907  0.135653957952468  0.7522271390764156  1.0000
