data_image0
_chemical_formula_structural       H76C70N6O16Br2
_chemical_formula_sum              "H76 C70 N6 O16 Br2"
_cell_length_a       9.340411814583389
_cell_length_b       12.093860252144697
_cell_length_c       15.013888759489666
_cell_angle_alpha    90.0
_cell_angle_beta     98.22696534951014
_cell_angle_gamma    90.0

_space_group_name_H-M_alt    "P 1"
_space_group_IT_number       1

loop_
  _space_group_symop_operation_xyz
  'x, y, z'

loop_
  _atom_site_type_symbol
  _atom_site_label
  _atom_site_symmetry_multiplicity
  _atom_site_fract_x
  _atom_site_fract_y
  _atom_site_fract_z
  _atom_site_occupancy
  H   H1        1.0  0.9970617973962034  0.9334635033506363  0.22774024310062863  1.0000
  H   H2        1.0  0.0029382028436429988  0.43346350385273813  0.7722597569052086  1.0000
  H   H3        1.0  0.9601028199637536  0.4446654209557554  0.20653193611660156  1.0000
  H   H4        1.0  0.039897180276093014  0.9446654212805193  0.7934680638892359  1.0000
  H   H5        1.0  0.053000747430470806  0.3482043650416092  0.1446116615611241  1.0000
  H   H6        1.0  0.9469992528093757  0.8482043653663732  0.8553883384447133  1.0000
  H   H7        1.0  0.865333582741493  0.3630332969344013  0.11838554173947366  1.0000
  H   H8        1.0  0.13466641642519991  0.8630332972591653  0.8816144582546255  1.0000
  H   H9        1.0  0.4328342993632512  0.4381845332684596  0.1515283209137021  1.0000
  H   H10       1.0  0.5671657008765953  0.9381845335932237  0.8484716790921353  1.0000
  H   H11       1.0  0.2550145964716555  0.07012267649195036  0.1902640593187764  1.0000
  H   H12       1.0  0.7449854026950372  0.5701226768167145  0.8097359406753227  1.0000
  H   H13       1.0  0.6101879147401604  0.31884882160070976  0.08976116758236363  1.0000
  H   H14       1.0  0.3898120854996861  0.8188488219254739  0.9102388324234737  1.0000
  H   H15       1.0  0.8231253595760558  0.98330719241535  0.04389203420286483  1.0000
  H   H16       1.0  0.17687464066379052  0.483307192090586  0.9561079658029724  1.0000
  H   H17       1.0  0.7619891973196941  0.16928161458099716  0.0977488571053704  1.0000
  H   H18       1.0  0.23801080184699877  0.6692816140788953  0.9022511428887288  1.0000
  H   H19       1.0  0.6315638715468614  0.10673029976273256  0.32216452766086945  1.0000
  H   H20       1.0  0.36843612869298503  0.6067303000874966  0.6778354723449679  1.0000
  H   H21       1.0  0.7525576219962749  0.8234036050014757  0.9636286155560617  1.0000
  H   H22       1.0  0.24744237824357157  0.3234036055035775  0.03637138444977554  1.0000
  H   H23       1.0  0.7104211346523516  0.980460077492396  0.2252771879612623  1.0000
  H   H24       1.0  0.28957886558749496  0.4804600771676321  0.774722812044575  1.0000
  H   H25       1.0  0.18298347688979769  0.07969709339324256  0.29332069695587276  1.0000
  H   H26       1.0  0.8170165233500488  0.5796970928911408  0.7066793030499645  1.0000
  H   H27       1.0  0.7469951303627388  0.6127464742852344  0.2470163318756934  1.0000
  H   H28       1.0  0.25300486880395406  0.11274647478733622  0.7529836681184059  1.0000
  H   H29       1.0  0.451290959870492  0.2229994322550348  0.38244377381493977  1.0000
  H   H30       1.0  0.5487090403693544  0.7229994325797988  0.6175562261908975  1.0000
  H   H31       1.0  0.6771202339863848  0.5196529353715247  0.09802318239373793  1.0000
  H   H32       1.0  0.32287976625346176  0.01965293504676064  0.9019768176120994  1.0000
  H   H33       1.0  0.056599661282022797  0.09756977800291204  0.046647247287973065  1.0000
  H   H34       1.0  0.9434003389578237  0.5975697783276761  0.9533527527178642  1.0000
  H   H35       1.0  0.8178959709769621  0.8085216147810179  0.2534317214266334  1.0000
  H   H36       1.0  0.18210402926288446  0.30852161445625387  0.7465682785792039  1.0000
  H   H37       1.0  0.8953292515796394  0.37627694756874663  0.4687546216565072  1.0000
  H   H38       1.0  0.10467074866020702  0.8762769470666449  0.53124537834933  1.0000
  H   H39       1.0  0.8797411380929229  0.38318079450092807  0.6319873037204918  1.0000
  H   H40       1.0  0.1202588621469237  0.8831807939988262  0.36801269628534544  1.0000
  H   H41       1.0  0.9108263445881516  0.21038955362071243  0.7240866742741108  1.0000
  H   H42       1.0  0.08917365565169494  0.7103895539454764  0.27591332573172656  1.0000
  H   H43       1.0  0.9603674205078849  0.03197116652075019  0.6493511210279833  1.0000
  H   H44       1.0  0.039632579731961444  0.5319711668455143  0.3506488789778539  1.0000
  H   H45       1.0  0.9673307157464481  0.025464225117483634  0.4859875380115339  1.0000
  H   H46       1.0  0.032669284493398204  0.5254642254422477  0.5140124619943034  1.0000
  H   H47       1.0  0.6797637995762231  0.6257611426143221  0.9573988418018774  1.0000
  H   H48       1.0  0.3202362006636234  0.12576114311642392  0.04260115820395985  1.0000
  H   H49       1.0  0.322251205763443  0.8167738310229165  0.07343697663533645  1.0000
  H   H50       1.0  0.6777487944764035  0.31677383069815246  0.9265630233705009  1.0000
  H   H51       1.0  0.1703818511970632  0.7343601558836451  0.026530293696614367  1.0000
  H   H52       1.0  0.8296181490427833  0.2343601563857469  0.9734697063092229  1.0000
  H   H53       1.0  0.3545430453645774  0.6900065236424527  0.21094310902011004  1.0000
  H   H54       1.0  0.6454569538021154  0.19000652331768866  0.7890568909739891  1.0000
  H   H55       1.0  0.3776115733599954  0.6205444740995018  0.1095896893823516  1.0000
  H   H56       1.0  0.622388426879851  0.12054447460160361  0.8904103106234856  1.0000
  H   H57       1.0  0.21376786795780078  0.6037486284584065  0.15610024593372518  1.0000
  H   H58       1.0  0.7862321322820457  0.10374862813364248  0.8438997540721122  1.0000
  H   H59       1.0  0.20113257283685412  0.20017550720173766  0.22835093880499388  1.0000
  H   H60       1.0  0.7988674274029923  0.7001755075265016  0.7716490612008434  1.0000
  H   H61       1.0  0.7831931792961626  0.504904946203354  0.37855487904277263  1.0000
  H   H62       1.0  0.21680682094368378  0.004904946705455801  0.6214451209630647  1.0000
  H   H63       1.0  0.5949866302055191  0.5182094367998503  0.3434656674074346  1.0000
  H   H64       1.0  0.4050133700343274  0.018209437301952142  0.6565343325984027  1.0000
  H   H65       1.0  0.6594950916659831  0.4485610489039653  0.44681118436644607  1.0000
  H   H66       1.0  0.34050490857386334  0.9485610484018634  0.5531888156393912  1.0000
  H   H67       1.0  0.5170006040140842  0.958946899352781  0.41944733487354735  1.0000
  H   H68       1.0  0.4829993951526086  0.45894689902801694  0.5805526651205518  1.0000
  H   H69       1.0  0.43307051685330517  0.8271532547456059  0.4096364365758927  1.0000
  H   H70       1.0  0.5669294833865414  0.32715325442084175  0.5903635634299446  1.0000
  H   H71       1.0  0.5127093388010838  0.8817564357177765  0.3181512819848394  1.0000
  H   H72       1.0  0.48729066143876265  0.3817564353930125  0.6818487180209979  1.0000
  H   H73       1.0  0.7596714212216777  0.8662554165153467  0.4089201761481826  1.0000
  H   H74       1.0  0.24032857794501508  0.36625541619058255  0.5910798238459165  1.0000
  H   H75       1.0  0.6825562501130072  0.8185586424520193  0.5039080961007267  1.0000
  H   H76       1.0  0.3174437501268393  0.3185586429541211  0.4960919039051106  1.0000
  C   C1        1.0  0.6378860158830034  0.20639794556558883  0.2027355457629676  1.0000
  C   C2        1.0  0.362113984356843  0.7063979458903528  0.7972644542428697  1.0000
  C   C3        1.0  0.7515641330755505  0.7769666850858178  0.025790261754393983  1.0000
  C   C4        1.0  0.24843586716429594  0.27696668476105385  0.9742097382514433  1.0000
  C   C5        1.0  0.8296551994218909  0.9507727979543074  0.11271743171342277  1.0000
  C   C6        1.0  0.17034480081795553  0.4507727976295433  0.8872825682924146  1.0000
  C   C7        1.0  0.5907844262094327  0.18021119762926824  0.28478471626009466  1.0000
  C   C8        1.0  0.40921557403041375  0.6802111979540322  0.7152152837457427  1.0000
  C   C9        1.0  0.9064103299888233  0.1543727884294774  0.22139919624660004  1.0000
  C   C10       1.0  0.09358967025102306  0.6543727879273756  0.7786008037592373  1.0000
  C   C11       1.0  0.7485790001882092  0.65788905892054  0.18453067441798793  1.0000
  C   C12       1.0  0.25142100005163726  0.1578890594226418  0.8154693255878493  1.0000
  C   C13       1.0  0.4357933059205609  0.3392487447729863  0.2718400925500903  1.0000
  C   C14       1.0  0.5642066943192855  0.8392487450977504  0.728159907455747  1.0000
  C   C15       1.0  0.788333528623271  0.7690262997995757  0.18813101341060032  1.0000
  C   C16       1.0  0.21166647161657545  0.26902630030167746  0.811868986595237  1.0000
  C   C17       1.0  0.790743417793436  0.829410739074909  0.10869595650805393  1.0000
  C   C18       1.0  0.20925658137325678  0.329410738750145  0.8913040434860452  1.0000
  C   C19       1.0  0.17371900266341753  0.11206046553743369  0.22430678489958847  1.0000
  C   C20       1.0  0.8262809965032754  0.6120604658621978  0.7756932150945106  1.0000
  C   C21       1.0  0.5779747355178004  0.29868397390811696  0.15489049684583972  1.0000
  C   C22       1.0  0.42202526364889237  0.7986839742328811  0.8451095031482594  1.0000
  C   C23       1.0  0.49011784622145  0.24605529731272408  0.3199728987123779  1.0000
  C   C24       1.0  0.5098821540183965  0.7460552976374881  0.6800271012934594  1.0000
  C   C25       1.0  0.9850364532142979  0.9715163417665911  0.16090923917498984  1.0000
  C   C26       1.0  0.01496354702554856  0.471516341441827  0.8390907608308474  1.0000
  C   C27       1.0  0.7525614739060944  0.13937537848604475  0.1657514021524285  1.0000
  C   C28       1.0  0.2474385263337521  0.6393753788108087  0.8342485978534089  1.0000
  C   C29       1.0  0.4775400658014613  0.36609268072324896  0.18903855568595487  1.0000
  C   C30       1.0  0.5224599333652316  0.866092681048013  0.8109614443081444  1.0000
  C   C31       1.0  0.7093527556229018  0.6061905046984402  0.10152679164854  1.0000
  C   C32       1.0  0.29064724354379107  0.10619050437367618  0.8984732083455592  1.0000
  C   C33       1.0  0.022137382677357147  0.0964554737428136  0.17180295789699435  1.0000
  C   C34       1.0  0.9778626175624893  0.5964554740675776  0.8281970421088429  1.0000
  C   C35       1.0  0.7198775816955458  0.0151520247612836  0.15915602627287478  1.0000
  C   C36       1.0  0.28012241854430064  0.5151520250860476  0.8408439737329626  1.0000
  C   C37       1.0  0.7105203232236995  0.6660131655293108  0.022167561936191252  1.0000
  C   C38       1.0  0.28947967594299334  0.16601316520454681  0.9778324380579079  1.0000
  C   C39       1.0  0.9541273335047892  0.36302387727867313  0.17467880769640293  1.0000
  C   C40       1.0  0.04587266673505721  0.8630238767765713  0.8253211923094343  1.0000
  C   C41       1.0  0.9305833262459087  0.20103312336264548  0.46722445400181034  1.0000
  C   C42       1.0  0.06941667292078416  0.7010331228605436  0.5327755459922888  1.0000
  C   C43       1.0  0.9430249296919929  0.1081529356822231  0.6104052070851982  1.0000
  C   C44       1.0  0.056975069474699915  0.6081529360069872  0.38959479290890103  1.0000
  C   C45       1.0  0.9491996636003662  0.10348590474063514  0.5182851125243984  1.0000
  C   C46       1.0  0.05080033663948022  0.6034859042385333  0.4817148874814389  1.0000
  C   C47       1.0  0.9164515575082819  0.20763001619393578  0.6522934407584182  1.0000
  C   C48       1.0  0.08354844273156456  0.707630015691834  0.34770655924741906  1.0000
  C   C49       1.0  0.9073917650374084  0.3015654203010352  0.5091368402842135  1.0000
  C   C50       1.0  0.09260823520243812  0.8015654206257994  0.4908631597216238  1.0000
  C   C51       1.0  0.9365921903732622  0.27573311998612154  0.2415123464137714  1.0000
  C   C52       1.0  0.06340780986658429  0.7757331203108855  0.7584876535920659  1.0000
  C   C53       1.0  0.237608617742508  0.7601530940767818  0.089239042026688  1.0000
  C   C54       1.0  0.7623913824973384  0.2601530937520177  0.9107609579791494  1.0000
  C   C55       1.0  0.8990530572124947  0.3042158279733346  0.6009693695964026  1.0000
  C   C56       1.0  0.10094694302735166  0.8042158282980986  0.3990306304094347  1.0000
  C   C57       1.0  0.2986648148488598  0.6629894610017582  0.14519952151184537  1.0000
  C   C58       1.0  0.7013351853909866  0.16298946067699407  0.8548004784939919  1.0000
  C   C59       1.0  0.0873545852513238  0.9156926398282232  0.10506189575603649  1.0000
  C   C60       1.0  0.9126454149885228  0.4156926395034592  0.8949381042498008  1.0000
  C   C61       1.0  0.9089490658430968  0.10923736775986963  0.31701142174002195  1.0000
  C   C62       1.0  0.09105093439674967  0.6092373680846337  0.6829885782658153  1.0000
  C   C63       1.0  0.679978112205857  0.6247976396667886  0.45252970211618015  1.0000
  C   C64       1.0  0.3200218880339895  0.12479764016889039  0.5474702978896571  1.0000
  C   C65       1.0  0.6785525145723498  0.517139150743113  0.4025392109684264  1.0000
  C   C66       1.0  0.32144748566749665  0.017139151245214836  0.597460789037411  1.0000
  C   C67       1.0  0.524496210638933  0.8753289858895701  0.3918181543582533  1.0000
  C   C68       1.0  0.47550378960091344  0.37532898556480615  0.6081818456475839  1.0000
  C   C69       1.0  0.6672667809905902  0.8228306696561403  0.4302115323229853  1.0000
  C   C70       1.0  0.3327332181761026  0.3228306693313763  0.5697884676711139  1.0000
  N   N1        1.0  0.5716431474406183  0.9978443307925544  0.10525973304917075  1.0000
  N   N2        1.0  0.4283568527992282  0.49784433046779036  0.8947402669566665  1.0000
  N   N3        1.0  0.9474194535061145  0.29800403550726257  0.3266458048725513  1.0000
  N   N4        1.0  0.05258054566057827  0.7980040350051608  0.6733541951215478  1.0000
  N   N5        1.0  0.9322675988491903  0.19898760774693355  0.3733221831352237  1.0000
  N   N6        1.0  0.06773240139065623  0.6989876080716976  0.6266778168706135  1.0000
  O   O1        1.0  0.11233968005167774  0.9519583143817407  0.032081915279789645  1.0000
  O   O2        1.0  0.8876603201881688  0.45195831488384247  0.9679180847260477  1.0000
  O   O3        1.0  0.8893845554185026  0.012612855351371308  0.33961981754079845  1.0000
  O   O4        1.0  0.11061544482134382  0.5126128548492694  0.6603801824650389  1.0000
  O   O5        1.0  0.010971622341816136  0.14867143761489593  0.08557627609612535  1.0000
  O   O6        1.0  0.9890283778980304  0.6486714379396599  0.914423723909712  1.0000
  O   O7        1.0  0.1440567546361924  0.82217526519183  0.14211890859149123  1.0000
  O   O8        1.0  0.8559432445305004  0.322175264867066  0.8578810914026079  1.0000
  O   O9        1.0  0.5585293417032409  0.0117847078623821  0.022894034940320215  1.0000
  O   O10       1.0  0.4414706585366056  0.5117847081871462  0.9771059650655172  1.0000
  O   O11       1.0  0.47216619385411923  0.9703648310239785  0.14703773164495199  1.0000
  O   O12       1.0  0.5278338053125736  0.4703648306992144  0.8529622683491472  1.0000
  O   O13       1.0  0.6874149533788789  0.6335137632040443  0.5344824723950381  1.0000
  O   O14       1.0  0.3125850468609675  0.13351376370614612  0.4655175276107993  1.0000
  O   O15       1.0  0.6723568037545906  0.7107945544910328  0.3945622629746993  1.0000
  O   O16       1.0  0.32764319648525586  0.21079455499313457  0.6054377370311379  1.0000
  Br  Br1       1.0  0.3001951130139159  0.431265729986839  0.3201022292813023  1.0000
  Br  Br2       1.0  0.6998048872259306  0.9312657294847372  0.6798977707245349  1.0000
