data_image0
_chemical_formula_structural       H80C60N8O24
_chemical_formula_sum              "H80 C60 N8 O24"
_cell_length_a       6.234636553518005
_cell_length_b       13.310104646334517
_cell_length_c       18.560123904336322
_cell_angle_alpha    90.0
_cell_angle_beta     96.72891080439409
_cell_angle_gamma    90.0

_space_group_name_H-M_alt    "P 1"
_space_group_IT_number       1

loop_
  _space_group_symop_operation_xyz
  'x, y, z'

loop_
  _atom_site_type_symbol
  _atom_site_label
  _atom_site_symmetry_multiplicity
  _atom_site_fract_x
  _atom_site_fract_y
  _atom_site_fract_z
  _atom_site_occupancy
  H   H1        1.0  0.5326546744190476  0.2176127744268078  0.21616768087859994  1.0000
  H   H2        1.0  0.9673453259347881  0.7176127741888487  0.28383231901737366  1.0000
  H   H3        1.0  0.46734532464003614  0.7823872258485831  0.7838323188654428  1.0000
  H   H4        1.0  0.03265467474110621  0.2823872253352332  0.716167681328514  1.0000
  H   H5        1.0  0.4094359756197038  0.3084917030408751  0.267371520632187  1.0000
  H   H6        1.0  0.0905640255240332  0.808491702802916  0.23262847903339262  1.0000
  H   H7        1.0  0.5905640250544468  0.691508296483207  0.732628479174843  1.0000
  H   H8        1.0  0.9094359751501175  0.1915082967211659  0.7673715207736372  1.0000
  H   H9        1.0  0.16096027480110048  0.17161708947412815  0.17400771175903024  1.0000
  H   H10       1.0  0.3390397247293132  0.6716170892361691  0.32599228838242006  1.0000
  H   H11       1.0  0.8390397258730502  0.8283829108012628  0.8259922880479997  1.0000
  H   H12       1.0  0.660960274331514  0.32838291103922174  0.6740077119004805  1.0000
  H   H13       1.0  0.07075369752715371  0.2230764316956503  0.2536286170541558  1.0000
  H   H14       1.0  0.4292463020015164  0.7230764322090003  0.24637138254843663  1.0000
  H   H15       1.0  0.92924630153193  0.7769235678284316  0.7463713826898869  1.0000
  H   H16       1.0  0.5707536986726344  0.2769235680663907  0.7536286172585933  1.0000
  H   H17       1.0  0.059635398848075546  0.05247452883042091  0.2886448271188813  1.0000
  H   H18       1.0  0.4403646006823381  0.5524745293437708  0.21135517302256895  1.0000
  H   H19       1.0  0.9403646018278188  0.9475254706936611  0.7113551732270065  1.0000
  H   H20       1.0  0.5596353983767456  0.44752547093162004  0.7886448267214738  1.0000
  H   H21       1.0  0.2626823796406936  0.016443540138527273  0.23342736450142737  1.0000
  H   H22       1.0  0.23731761988972006  0.5164435399005682  0.2665726356400229  1.0000
  H   H23       1.0  0.7373176210334571  0.9835564601368636  0.7665726353056025  1.0000
  H   H24       1.0  0.7626823791711073  0.4835564603748226  0.7334273646428776  1.0000
  H   H25       1.0  0.5745831444450624  0.04524076451689125  0.42159695143707504  1.0000
  H   H26       1.0  0.9254168542937063  0.5452407650302412  0.07840304839591138  1.0000
  H   H27       1.0  0.42541685461402134  0.9547592350071907  0.5784030483069676  1.0000
  H   H28       1.0  0.07458314476537747  0.4547592352451498  0.9215969513481315  1.0000
  H   H29       1.0  0.5267981922538809  0.8606806005206584  0.4012097257057486  1.0000
  H   H30       1.0  0.9732018080999547  0.36068060075861746  0.09879027419022501  1.0000
  H   H31       1.0  0.47320180842026976  0.13931939975473243  0.5987902741012813  1.0000
  H   H32       1.0  0.026798192574195964  0.6393193995167734  0.9012097256168048  1.0000
  H   H33       1.0  0.35105216843405385  0.8838042098519163  0.3215519586783505  1.0000
  H   H34       1.0  0.1489478327114267  0.38380421008987536  0.17844804152608693  1.0000
  H   H35       1.0  0.6489478322418404  0.11619578967216561  0.6784480416675372  1.0000
  H   H36       1.0  0.8510521679644675  0.6161957894342066  0.8215519588198008  1.0000
  H   H37       1.0  0.6590527327953546  0.9758731058194231  0.26910730814326334  1.0000
  H   H38       1.0  0.8409472675602246  0.4758731053060732  0.23089269229156809  1.0000
  H   H39       1.0  0.3409472678805397  0.024126894455967836  0.7308926922026244  1.0000
  H   H40       1.0  0.15905273311566961  0.5241268942180088  0.7691073080543196  1.0000
  H   H41       1.0  0.7247098009960681  0.8494838936607284  0.2919922438438258  1.0000
  H   H42       1.0  0.7752901977427006  0.3494838938986875  0.2080077559891606  1.0000
  H   H43       1.0  0.27529019806301563  0.15051610661466241  0.7080077559002169  1.0000
  H   H44       1.0  0.2247098013181267  0.6505161063767033  0.7919922442937399  1.0000
  H   H45       1.0  0.8291862667262441  0.94713192683062  0.35061993290906907  1.0000
  H   H46       1.0  0.6708137336275917  0.4471319263172701  0.14938006698690454  1.0000
  H   H47       1.0  0.1708137323328397  0.05286807344477092  0.6493800668349736  1.0000
  H   H48       1.0  0.32918626704830267  0.552868073206812  0.8506199333589832  1.0000
  H   H49       1.0  0.02191520713801882  0.08763933349849659  0.4814934033445687  1.0000
  H   H50       1.0  0.4780847940074618  0.5876393332605376  0.018506596859868787  1.0000
  H   H51       1.0  0.9780847935361319  0.9123606667768942  0.5185065964624612  1.0000
  H   H52       1.0  0.5219152066684324  0.4123606662635444  0.981493403486019  1.0000
  H   H53       1.0  0.16471773535815784  0.1565808267761399  0.422349593375967  1.0000
  H   H54       1.0  0.3352822641722558  0.656580826538181  0.07765040676548324  1.0000
  H   H55       1.0  0.8352822653177364  0.8434191727479421  0.5776504069699206  1.0000
  H   H56       1.0  0.6647177348868278  0.34341917298590113  0.9223495929785595  1.0000
  H   H57       1.0  0.7006548454161754  0.40599742628531293  0.3583584848519186  1.0000
  H   H58       1.0  0.7993451549394037  0.9059974260473539  0.14164151558291274  1.0000
  H   H59       1.0  0.2993451552597188  0.594002573238769  0.641641515493969  1.0000
  H   H60       1.0  0.20065484573649048  0.09400257347672805  0.858358484762975  1.0000
  H   H61       1.0  0.4076222063088073  0.5558486335445494  0.45518543727360666  1.0000
  H   H62       1.0  0.0923777932216064  0.0558486330311995  0.0448145628678436  1.0000
  H   H63       1.0  0.5923777943653434  0.4441513667308415  0.5448145625334232  1.0000
  H   H64       1.0  0.9076222058392208  0.9441513664928824  0.9551854374150568  1.0000
  H   H65       1.0  0.3815370816323401  0.37191975581974596  0.4302767524226408  1.0000
  H   H66       1.0  0.11846291789632994  0.8719197563330958  0.06972324717995167  1.0000
  H   H67       1.0  0.6184629190418106  0.6280802437043361  0.5697232473843892  1.0000
  H   H68       1.0  0.8815370811627539  0.12808024394229506  0.9302767525640909  1.0000
  H   H69       1.0  0.8787850467033292  0.2537819483583274  0.3693179447837476  1.0000
  H   H70       1.0  0.6212149536505064  0.7537819488716773  0.13068205511222603  1.0000
  H   H71       1.0  0.12121495397082142  0.7462180511657547  0.6306820550232823  1.0000
  H   H72       1.0  0.3787850454085773  0.24621805140371364  0.8693179446318167  1.0000
  H   H73       1.0  0.7384189967097425  0.6684384553242524  0.3967939821180181  1.0000
  H   H74       1.0  0.7615810020307698  0.1684384555622114  0.10320601825382617  1.0000
  H   H75       1.0  0.2615810023510849  0.3315615449511385  0.6032060181648825  1.0000
  H   H76       1.0  0.23841899703005745  0.8315615447131796  0.8967939820290745  1.0000
  H   H77       1.0  0.25752448039102444  0.8064519074202797  0.4644538086510457  1.0000
  H   H78       1.0  0.24247551913938917  0.30645190765823876  0.0355461914904046  1.0000
  H   H79       1.0  0.7424755186698028  0.19354809210380228  0.5355461916318549  1.0000
  H   H80       1.0  0.7575244799196946  0.6935480926171522  0.9644538082536381  1.0000
  C   C1        1.0  0.5039222002956353  0.17210373478399685  0.32461872463694  1.0000
  C   C2        1.0  0.9960778000582003  0.6721037345460379  0.1753812752590336  1.0000
  C   C3        1.0  0.49607780038025895  0.8278962654913941  0.6753812757089477  1.0000
  C   C4        1.0  0.0039222006159503565  0.3278962649780442  0.8246187245479962  1.0000
  C   C5        1.0  0.4179550101892219  0.22772939661558092  0.2563403185476992  1.0000
  C   C6        1.0  0.08204498934119181  0.7277293971289308  0.24365968159375112  1.0000
  C   C7        1.0  0.5820449904849289  0.7722706029085011  0.7436596812593308  1.0000
  C   C8        1.0  0.9179550097196355  0.27227060314646007  0.7563403186891494  1.0000
  C   C9        1.0  0.19813178021040984  0.17890423278195414  0.23270174666612142  1.0000
  C   C10       1.0  0.30186821932000385  0.6789042332953041  0.2672982534753289  1.0000
  C   C11       1.0  0.8018682204654844  0.8210957667421278  0.7672982536797663  1.0000
  C   C12       1.0  0.69813177973908  0.32109576698008685  0.7327017462687139  1.0000
  C   C13       1.0  0.2125197877641343  0.07544567129128806  0.26964092110270255  1.0000
  C   C14       1.0  0.2874802117662793  0.575445671804638  0.23035907903874767  1.0000
  C   C15       1.0  0.7874802112949494  0.9245543282327939  0.7303590786413402  1.0000
  C   C16       1.0  0.712519787294548  0.424554328470753  0.7696409212441528  1.0000
  C   C17       1.0  0.4321177373026343  0.015175560626086118  0.38747578127162835  1.0000
  C   C18       1.0  0.06788226384284629  0.5151755603881272  0.11252421893280909  1.0000
  C   C19       1.0  0.5678822633732599  0.9848244396493048  0.6125242190742594  1.0000
  C   C20       1.0  0.9321177368313043  0.4848244398872638  0.8874757808742207  1.0000
  C   C21       1.0  0.49160067331442525  0.9139061895617707  0.3562475833638532  1.0000
  C   C22       1.0  0.008399326215988339  0.4139061897997297  0.14375241677759706  1.0000
  C   C23       1.0  0.508399325746402  0.08609380996231125  0.6437524169190474  1.0000
  C   C24       1.0  0.9916006744581624  0.5860938104756611  0.8562475830294328  1.0000
  C   C25       1.0  0.686854074502179  0.9226278662941899  0.31443206338536267  1.0000
  C   C26       1.0  0.8131459258516569  0.42262786578084  0.18556793651061093  1.0000
  C   C27       1.0  0.31314592617197184  0.07737213398120098  0.6855679364216672  1.0000
  C   C28       1.0  0.18685407482249386  0.5773721337432419  0.8144320632964189  1.0000
  C   C29       1.0  0.2543213103289604  0.007626338988097604  0.4376474849012178  1.0000
  C   C30       1.0  0.2456786892014533  0.5076263387501385  0.06235251524023252  1.0000
  C   C31       1.0  0.7456786903451903  0.9923736612872932  0.5623525149058122  1.0000
  C   C32       1.0  0.7543213098593741  0.4923736607739434  0.9376474850426679  1.0000
  C   C33       1.0  0.04049435116214945  0.3786605142423109  0.39201624079139885  1.0000
  C   C34       1.0  0.45950564836652064  0.8786605147556608  0.10798375881119358  1.0000
  C   C35       1.0  0.9595056478969344  0.6213394852817712  0.607983758952644  1.0000
  C   C36       1.0  0.5404943523076301  0.12133948551973013  0.8920162409958363  1.0000
  C   C37       1.0  0.8559788481346516  0.438593860462822  0.3790820053203303  1.0000
  C   C38       1.0  0.6440211522191839  0.938593860224863  0.1209179945756433  1.0000
  C   C39       1.0  0.14402115253949901  0.5614061398125689  0.6209179944866996  1.0000
  C   C40       1.0  0.3559788468398998  0.061406140050527934  0.8790820051683995  1.0000
  C   C41       1.0  0.8700377269983317  0.5414915413144274  0.393715091734229  1.0000
  C   C42       1.0  0.6299622733555039  0.04149154155238641  0.10628490816174462  1.0000
  C   C43       1.0  0.12996227367581897  0.4585084582096546  0.6062849080728009  1.0000
  C   C44       1.0  0.37003772570532334  0.9585084587230045  0.8937150921211559  1.0000
  C   C45       1.0  0.07080157062510437  0.5850328518750172  0.4222250618838475  1.0000
  C   C46       1.0  0.42919843052037626  0.08503285211297616  0.0777749383205899  1.0000
  C   C47       1.0  0.92919843005079  0.41496714764906484  0.5777749384620401  1.0000
  C   C48       1.0  0.570801570155518  0.9149671481624146  0.9222250620252977  1.0000
  C   C49       1.0  0.25358159242546  0.5224413928191766  0.4343982133810527  1.0000
  C   C50       1.0  0.24641840710321009  0.02244139305713562  0.06560178622153973  1.0000
  C   C51       1.0  0.7464184066336238  0.47755860670490535  0.56560178636299  1.0000
  C   C52       1.0  0.7535815935709406  0.9775586072182553  0.9343982135854902  1.0000
  C   C53       1.0  0.24117740416514516  0.42075485796742174  0.41942128854747474  1.0000
  C   C54       1.0  0.25882259697859183  0.9207548577294626  0.08057871111810487  1.0000
  C   C55       1.0  0.7588225965090055  0.5792451423079692  0.5805787112595552  1.0000
  C   C56       1.0  0.741177403695559  0.0792451425459282  0.919421288688925  1.0000
  C   C57       1.0  0.07833912476633005  0.6925405798772961  0.4369214366535996  1.0000
  C   C58       1.0  0.4216608763791505  0.19254058011525507  0.06307856355083781  1.0000
  C   C59       1.0  0.9216608759078206  0.3074594203980948  0.5630785631534303  1.0000
  C   C60       1.0  0.5783391242967437  0.8074594201601358  0.93692143679505  1.0000
  N   N1        1.0  0.37935622767572796  0.09015426038220209  0.3313133366855205  1.0000
  N   N2        1.0  0.12064377185468572  0.5901542601442431  0.1686866634559298  1.0000
  N   N3        1.0  0.6206437713833559  0.9098457398931888  0.6686866630585222  1.0000
  N   N4        1.0  0.8793562288212086  0.40984574013114783  0.8313133368899579  1.0000
  N   N5        1.0  0.14305297910732073  0.09021040945239034  0.448188290384338  1.0000
  N   N6        1.0  0.35694702042309295  0.5902104099657403  0.05181170975711228  1.0000
  N   N7        1.0  0.856947019951763  0.9097895900716917  0.5518117093597047  1.0000
  N   N8        1.0  0.6430529802528013  0.4097895903096507  0.9481882905887754  1.0000
  O   O1        1.0  0.6634727633668407  0.19425021731230496  0.3688870122243492  1.0000
  O   O2        1.0  0.8365272369869948  0.694250217074346  0.13111298767162435  1.0000
  O   O3        1.0  0.3365272356939865  0.805749782963086  0.6311129880585512  1.0000
  O   O4        1.0  0.16347276368715588  0.30574978320104496  0.8688870121354056  1.0000
  O   O5        1.0  0.22281184451112918  0.9267752063389734  0.4704548664184763  1.0000
  O   O6        1.0  0.27718815501754096  0.42677520582562334  0.029545133184116227  1.0000
  O   O7        1.0  0.7771881545479546  0.07322479393641763  0.5295451333255665  1.0000
  O   O8        1.0  0.7228118456566098  0.5732247936984586  0.9704548666229136  1.0000
  O   O9        1.0  0.03352730565730765  0.2786906571032509  0.37842836015953757  1.0000
  O   O10       1.0  0.46647269548817294  0.7786906568652919  0.12157164004489991  1.0000
  O   O11       1.0  0.9664726950185867  0.72130934317214  0.6215716401863502  1.0000
  O   O12       1.0  0.5335273051859778  0.22130934341009897  0.8784283597621299  1.0000
  O   O13       1.0  0.6911113186134213  0.5982257263614216  0.3795918064697122  1.0000
  O   O14       1.0  0.8088886801270909  0.09822572584807172  0.12040819390213206  1.0000
  O   O15       1.0  0.308888680447406  0.40177427391396925  0.6204081938131883  1.0000
  O   O16       1.0  0.19111131893373634  0.9017742736760103  0.8795918063807685  1.0000
  O   O17       1.0  0.9130027766553932  0.7473866505429415  0.4267786753151933  1.0000
  O   O18       1.0  0.5869972236984425  0.2473866507809006  0.07322132458078028  1.0000
  O   O19       1.0  0.08699722401875758  0.2526133489811404  0.5732213244918365  1.0000
  O   O20       1.0  0.4130027769774518  0.7526133494944902  0.9267786757651074  1.0000
  O   O21       1.0  0.27125965494980064  0.7308798900149164  0.46071060671716574  1.0000
  O   O22       1.0  0.22874034619567998  0.23087988950156646  0.03928939348727171  1.0000
  O   O23       1.0  0.7287403457243501  0.26912011026047455  0.5392893930898641  1.0000
  O   O24       1.0  0.7712596544802143  0.7691201100225156  0.960710606858616  1.0000
