data_image0
_chemical_formula_structural       H90C54N2O2Br2
_chemical_formula_sum              "H90 C54 N2 O2 Br2"
_cell_length_a       7.489465880658535
_cell_length_b       8.043825411375568
_cell_length_c       22.920557472646692
_cell_angle_alpha    79.3529711233622
_cell_angle_beta     81.61276457184768
_cell_angle_gamma    69.80064120013726

_space_group_name_H-M_alt    "P 1"
_space_group_IT_number       1

loop_
  _space_group_symop_operation_xyz
  'x, y, z'

loop_
  _atom_site_type_symbol
  _atom_site_label
  _atom_site_symmetry_multiplicity
  _atom_site_fract_x
  _atom_site_fract_y
  _atom_site_fract_z
  _atom_site_occupancy
  H   H1        1.0  0.8901331231025554  0.6341404892914089  0.8985279849913295  1.0000
  H   H2        1.0  0.10986687686908903  0.3658595107245629  0.10147201527095678  1.0000
  H   H3        1.0  0.8865658284106902  0.10832880752825039  0.9371242172512857  1.0000
  H   H4        1.0  0.1134341716814752  0.8916711926751941  0.06287578256531538  1.0000
  H   H5        1.0  0.7296156925161892  0.15427096776157967  0.04212478170838751  1.0000
  H   H6        1.0  0.2703843075759761  0.8457290324418648  0.9578752181082136  1.0000
  H   H7        1.0  0.5970203159843925  0.3626505394854155  0.11877324800560674  1.0000
  H   H8        1.0  0.40297968398725204  0.6373494605305563  0.8812267522566795  1.0000
  H   H9        1.0  0.5266442914821969  0.6667088705179356  0.1457547483371967  1.0000
  H   H10       1.0  0.4733557084894475  0.3332911294980363  0.8542452519250895  1.0000
  H   H11       1.0  0.5915486378913818  0.9100917643048125  0.07303649495816729  1.0000
  H   H12       1.0  0.40845136220078354  0.08990823589863202  0.9269635048584339  1.0000
  H   H13       1.0  0.7461620599301411  0.8490934219105325  0.9699170308913974  1.0000
  H   H14       1.0  0.2538379405385415  0.15090657677989275  0.03008296937299603  1.0000
  H   H15       1.0  0.0711170638079167  0.19227861552570466  0.860708693637695  1.0000
  H   H16       1.0  0.9288829362842486  0.8077213846777398  0.1392913061789063  1.0000
  H   H17       1.0  0.0851485876860104  0.4140723678377591  0.8449857007872871  1.0000
  H   H18       1.0  0.914851412406155  0.5859276323656855  0.15501429902931407  1.0000
  H   H19       1.0  0.7692077090032983  0.5265420546979859  0.8039415926678414  1.0000
  H   H20       1.0  0.23079229096834622  0.47345794531798585  0.19605840759444504  1.0000
  H   H21       1.0  0.7432958282612301  0.3112547931836265  0.8255641544103856  1.0000
  H   H22       1.0  0.2567041718309353  0.6887452070198181  0.17443584540621554  1.0000
  H   H23       1.0  0.06736484791471152  0.3766635488999906  0.7366299533282339  1.0000
  H   H24       1.0  0.9326351520569329  0.6233364511159812  0.2633700469340524  1.0000
  H   H25       1.0  0.016207655297903186  0.17407399882549185  0.7588666107866866  1.0000
  H   H26       1.0  0.9837923434605892  0.8259260013703424  0.24113338903289774  1.0000
  H   H27       1.0  0.7561665769095455  0.5193212240375368  0.6920427964856126  1.0000
  H   H28       1.0  0.24383342318261975  0.48067877616590776  0.30795720333098847  1.0000
  H   H29       1.0  0.6966928434019523  0.32211080502132616  0.7160318254604251  1.0000
  H   H30       1.0  0.3033071566902131  0.6778891951821182  0.28396817435617616  1.0000
  H   H31       1.0  0.049729802775160946  0.3393512808885428  0.6314127187935293  1.0000
  H   H32       1.0  0.9502701971964836  0.6606487191274291  0.3685872814687568  1.0000
  H   H33       1.0  0.9704425712467767  0.15276912786388713  0.6520760411027661  1.0000
  H   H34       1.0  0.02955742872486759  0.8472308721520847  0.34792395915952024  1.0000
  H   H35       1.0  0.748114197389133  0.5137277426882515  0.5832497111816654  1.0000
  H   H36       1.0  0.25188580270303235  0.4862722575151932  0.41675028863493563  1.0000
  H   H37       1.0  0.6640592873933842  0.33014356763592057  0.6041403931324115  1.0000
  H   H38       1.0  0.33594071269878123  0.6698564325675238  0.3958596066841897  1.0000
  H   H39       1.0  0.031237200830167428  0.32244054382278425  0.5232130931075346  1.0000
  H   H40       1.0  0.9687627992619979  0.6775594563806603  0.47678690670906654  1.0000
  H   H41       1.0  0.9361363837922105  0.14558063488383555  0.5419509550700333  1.0000
  H   H42       1.0  0.06386361629995461  0.8544193653196088  0.4580490447465679  1.0000
  H   H43       1.0  0.7364083816061319  0.5153367976094241  0.4736092301747304  1.0000
  H   H44       1.0  0.2635916189830714  0.484663201268474  0.5263907696439778  1.0000
  H   H45       1.0  0.6382611848074825  0.3406544674997858  0.4927160776974621  1.0000
  H   H46       1.0  0.36173881528468277  0.6593455327036588  0.5072839221191391  1.0000
  H   H47       1.0  0.011335648950375497  0.31804668879792725  0.4132561730817797  1.0000
  H   H48       1.0  0.9886643511417897  0.6819533114055172  0.5867438267348215  1.0000
  H   H49       1.0  0.907234091081734  0.147315745680508  0.4312658995910035  1.0000
  H   H50       1.0  0.09276590901043115  0.8526842545229365  0.5687341002255977  1.0000
  H   H51       1.0  0.6140943217256786  0.35182402182736044  0.3818414264816455  1.0000
  H   H52       1.0  0.3859056783664865  0.6481759783760842  0.6181585733349557  1.0000
  H   H53       1.0  0.7194308659202223  0.5213330035121729  0.3635189553964295  1.0000
  H   H54       1.0  0.2805691340514223  0.47866699650379885  0.6364810448658567  1.0000
  H   H55       1.0  0.8790258386898546  0.1545110755062811  0.32005463023088326  1.0000
  H   H56       1.0  0.1209741612817899  0.8454889245096906  0.6799453700314031  1.0000
  H   H57       1.0  0.9893787704491093  0.320021300461154  0.3027503314336198  1.0000
  H   H58       1.0  0.01062123001957288  0.6799786982292715  0.6972496688307736  1.0000
  H   H59       1.0  0.801592672758577  0.32989560423192865  0.21965457836742955  1.0000
  H   H60       1.0  0.19840732733358815  0.6701043959715159  0.7803454214491716  1.0000
  H   H61       1.0  0.6979731966545497  0.531760936279417  0.2519866282098199  1.0000
  H   H62       1.0  0.3020268033170946  0.468239063736555  0.7480133720524663  1.0000
  H   H63       1.0  0.5901890515091384  0.36262679335968795  0.2692459622611774  1.0000
  H   H64       1.0  0.4098109490800649  0.6373732055182103  0.7307540375575307  1.0000
  H   H65       1.0  0.4196865637583526  0.12620992994138233  0.8068239549448286  1.0000
  H   H66       1.0  0.5803134362132919  0.8737900700745894  0.19317604531745766  1.0000
  H   H67       1.0  0.3034810792990791  0.9647958516715974  0.8104692759781573  1.0000
  H   H68       1.0  0.6965189207930864  0.035204148531847064  0.1895307238384437  1.0000
  H   H69       1.0  0.5904629475442545  0.7753493439378232  0.7540235881515222  1.0000
  H   H70       1.0  0.40953705254791084  0.2246506562656214  0.24597641166507897  1.0000
  H   H71       1.0  0.704704457673278  0.9366292568360423  0.7497799293495239  1.0000
  H   H72       1.0  0.29529554241888717  0.06337074336740241  0.2502200704670774  1.0000
  H   H73       1.0  0.31863231997910263  0.011682705639150632  0.7008054157173547  1.0000
  H   H74       1.0  0.6813676799925417  0.9883172943768211  0.2991945845449316  1.0000
  H   H75       1.0  0.44535292915573754  0.16418071452736008  0.6916743617170271  1.0000
  H   H76       1.0  0.5546470709364277  0.8358192856760844  0.3083256380995739  1.0000
  H   H77       1.0  0.5963314634995827  0.8034869030099279  0.6442496749538856  1.0000
  H   H78       1.0  0.4036685351383888  0.19651309699843358  0.35575032531138406  1.0000
  H   H79       1.0  0.711305503635927  0.9662005726551678  0.6311371634310551  1.0000
  H   H80       1.0  0.28869449633571725  0.03379942736080401  0.3688628368312313  1.0000
  H   H81       1.0  0.3149806584144196  0.02577664890873269  0.5925814894350627  1.0000
  H   H82       1.0  0.685019341557225  0.974223351107239  0.4074185108272235  1.0000
  H   H83       1.0  0.4373493689494714  0.1827339355839195  0.576345662714723  1.0000
  H   H84       1.0  0.562650631142694  0.817266064619525  0.4236543371018782  1.0000
  H   H85       1.0  0.6997149279541653  0.9733195464784193  0.5173492292815012  1.0000
  H   H86       1.0  0.3002850721379998  0.02668045372502521  0.48265077053509997  1.0000
  H   H87       1.0  0.5821215145106193  0.8126503959962653  0.5352101204407318  1.0000
  H   H88       1.0  0.417878485581546  0.18734960420717917  0.46478987937586935  1.0000
  H   H89       1.0  0.6549705658920262  0.8946682849722952  0.8599566751681565  1.0000
  H   H90       1.0  0.34502943420013915  0.1053317152311493  0.14004332464844446  1.0000
  C   C1        1.0  0.8485070210221957  0.5331656201467092  0.9313585547312593  1.0000
  C   C2        1.0  0.15149297894944894  0.4668343798692626  0.06864144553102697  1.0000
  C   C3        1.0  0.8485695672138245  0.23389712776485724  0.9552133205963704  1.0000
  C   C4        1.0  0.15143043275781992  0.7661028722511147  0.04478667966591591  1.0000
  C   C5        1.0  0.7628533133134194  0.26203394173978556  0.011156679541356079  1.0000
  C   C6        1.0  0.2371466867787459  0.737966058463659  0.9888433202752451  1.0000
  C   C7        1.0  0.7152957022200183  0.4323478848047317  0.029539573976030763  1.0000
  C   C8        1.0  0.28470429787214696  0.5676521153987129  0.9704604258405705  1.0000
  C   C9        1.0  0.6301578632651986  0.469036165344933  0.087080482160566  1.0000
  C   C10       1.0  0.36984213682696676  0.5309638348585114  0.9129195176560352  1.0000
  C   C11       1.0  0.5901160595775197  0.6383861214731057  0.10126069230411623  1.0000
  C   C12       1.0  0.4098839403941247  0.3616138785428659  0.8987393079581701  1.0000
  C   C13       1.0  0.6290104206146874  0.7780020823306805  0.059481547648919546  1.0000
  C   C14       1.0  0.37098957947747796  0.22199791787276393  0.9405184521676817  1.0000
  C   C15       1.0  0.7124565330864155  0.7459347049698114  0.0032215194127840604  1.0000
  C   C16       1.0  0.2875434668852289  0.2540652950461605  0.9967784808495022  1.0000
  C   C17       1.0  0.7581275283182713  0.5721468677417212  0.9876630855963044  1.0000
  C   C18       1.0  0.241872471653373  0.42785313227425054  0.012336914665981847  1.0000
  C   C19       1.0  0.9880168283164635  0.33530358294041135  0.8566220159085554  1.0000
  C   C20       1.0  0.011983170442028946  0.6646964172554228  0.143377983911029  1.0000
  C   C21       1.0  0.8472754708963665  0.38164137420589783  0.8097098741352906  1.0000
  C   C22       1.0  0.152724529195799  0.6183586259975467  0.19029012568131057  1.0000
  C   C23       1.0  0.9503511430969667  0.3207163110094153  0.7510047272771987  1.0000
  C   C24       1.0  0.04964885687467779  0.6792836890065564  0.24899527298508758  1.0000
  C   C25       1.0  0.8181994776760433  0.3721593348205711  0.7011750272824694  1.0000
  C   C26       1.0  0.18180052241612193  0.6278406653828735  0.29882497253413176  1.0000
  C   C27       1.0  0.9201094359765714  0.30046615269482696  0.6437225964871491  1.0000
  C   C28       1.0  0.0798905639950732  0.6995338473211449  0.3562774037751371  1.0000
  C   C29       1.0  0.7954165174175557  0.3660362668822044  0.5916319408590679  1.0000
  C   C30       1.0  0.20458348317164773  0.6339637319956938  0.4083680589596403  1.0000
  C   C31       1.0  0.8958619349311572  0.29293432537537206  0.5342907631332705  1.0000
  C   C32       1.0  0.10413806504048737  0.7070656746405998  0.4657092371290158  1.0000
  C   C33       1.0  0.7747833754225901  0.36799592833530403  0.48138353195691375  1.0000
  C   C34       1.0  0.22521662466957518  0.6320040718681406  0.5186164678596874  1.0000
  C   C35       1.0  0.8728829160695007  0.29419364588056685  0.42394738892154576  1.0000
  C   C36       1.0  0.12711708390214366  0.7058063541354049  0.5760526113407406  1.0000
  C   C37       1.0  0.7531242393002701  0.37439948921192295  0.37088436083495563  1.0000
  C   C38       1.0  0.24687576067137443  0.6256005108040488  0.6291156394273306  1.0000
  C   C39       1.0  0.8488127942292177  0.30066737631093055  0.3131950037598046  1.0000
  C   C40       1.0  0.15118720586294745  0.699332623892514  0.6868049960567966  1.0000
  C   C41       1.0  0.7285350622552635  0.38570981333458193  0.2604163222369624  1.0000
  C   C42       1.0  0.27146493783690195  0.6142901868688626  0.7395836775796386  1.0000
  C   C43       1.0  0.4442295904688797  0.9815932151403272  0.8080873765414097  1.0000
  C   C44       1.0  0.5557704095027647  0.018406784875644712  0.19191262372087656  1.0000
  C   C45       1.0  0.5639702742350778  0.9199165600582742  0.7516267182769975  1.0000
  C   C46       1.0  0.43602972573656645  0.0800834399576977  0.24837328198528882  1.0000
  C   C47       1.0  0.4640533516296222  0.020333903155840206  0.6957621034313143  1.0000
  C   C48       1.0  0.5359466484625433  0.9796660970476042  0.30423789638528687  1.0000
  C   C49       1.0  0.5693194160606602  0.949245726454384  0.6385425751342992  1.0000
  C   C50       1.0  0.4306805840315051  0.05075427374906046  0.36145742468230196  1.0000
  C   C51       1.0  0.4592001600357653  0.03769130866793123  0.5837020932155383  1.0000
  C   C52       1.0  0.5407998399358791  0.9623086913480405  0.41629790704674785  1.0000
  C   C53       1.0  0.5569975764024214  0.9582886621633653  0.527121322365071  1.0000
  C   C54       1.0  0.443002423569223  0.041711337852606487  0.47287867789721527  1.0000
  N   N1        1.0  0.8920244244667401  0.3701800813079297  0.9165019473032977  1.0000
  N   N2        1.0  0.10797557562542529  0.6298199188955149  0.08349805251330339  1.0000
  O   O1        1.0  0.5265345110213918  0.8820880347250597  0.8618272364390621  1.0000
  O   O2        1.0  0.4734654890707735  0.11791196547838492  0.13817276337753906  1.0000
  Br  Br1       1.0  0.9487991341517029  0.9092754413544786  0.8556068390337405  1.0000
  Br  Br2       1.0  0.0512008659404625  0.09072455884896588  0.1443931607828607  1.0000
