data_image0
_chemical_formula_structural       H12B2C60N12Cl24Br2
_chemical_formula_sum              "H12 B2 C60 N12 Cl24 Br2"
_cell_length_a       8.621394038775644
_cell_length_b       17.213924429365623
_cell_length_c       12.324969752035758
_cell_angle_alpha    90.0
_cell_angle_beta     108.0156673370108
_cell_angle_gamma    90.0

_space_group_name_H-M_alt    "P 1"
_space_group_IT_number       1

loop_
  _space_group_symop_operation_xyz
  'x, y, z'

loop_
  _atom_site_type_symbol
  _atom_site_label
  _atom_site_symmetry_multiplicity
  _atom_site_fract_x
  _atom_site_fract_y
  _atom_site_fract_z
  _atom_site_occupancy
  H   H1        1.0  0.8574090346791975  0.2500000001544444  0.07036774867031453  1.0000
  H   H2        1.0  0.14259096579053354  0.7499999998824082  0.9296322512919152  1.0000
  H   H3        1.0  0.9317615213254081  0.1247866010341932  0.9984995138169536  1.0000
  H   H4        1.0  0.06823847914432286  0.6247866013430821  0.0015004861452761603  1.0000
  H   H5        1.0  0.06823847914432286  0.8752133990026594  0.0015004861452761603  1.0000
  H   H6        1.0  0.9317615213254081  0.3752133986937706  0.9984995138169536  1.0000
  H   H7        1.0  0.08589430549417423  0.12487610648115403  0.8584349306656756  1.0000
  H   H8        1.0  0.9141056949755567  0.6248761067900428  0.14156506929655407  1.0000
  H   H9        1.0  0.9141056949755567  0.8751238929747736  0.14156506929655407  1.0000
  H   H10       1.0  0.08589430549417423  0.3751238932468097  0.8584349306656756  1.0000
  H   H11       1.0  0.1598681163995077  0.2500000001544444  0.7858820742515263  1.0000
  H   H12       1.0  0.8401318840702233  0.7499999998824082  0.21411792571070343  1.0000
  B   B1        1.0  0.680495848692728  0.2500000001544444  0.5768870731849436  1.0000
  B   B2        1.0  0.3195041521507233  0.7499999998824082  0.4231129276304736  1.0000
  C   C1        1.0  0.7705633970364033  0.11688446340380204  0.653811736856797  1.0000
  C   C2        1.0  0.2294366038070479  0.6168844631317658  0.3461882639586201  1.0000
  C   C3        1.0  0.2294366038070479  0.8831155366330505  0.3461882639586201  1.0000
  C   C4        1.0  0.7705633970364033  0.38311553690508676  0.653811736856797  1.0000
  C   C5        1.0  0.9033915204148755  0.0651498694909357  0.6525207320716019  1.0000
  C   C6        1.0  0.09660847889381584  0.5651498692188994  0.34747926788804995  1.0000
  C   C7        1.0  0.09660847889381584  0.9348501305459169  0.34747926788804995  1.0000
  C   C8        1.0  0.9033915204148755  0.43485013081795315  0.6525207320716019  1.0000
  C   C9        1.0  0.9477646984498184  0.9912676798377718  0.6987952233146747  1.0000
  C   C10       1.0  0.052235302019912645  0.491267680109808  0.30120477664755513  1.0000
  C   C11       1.0  0.052235302019912645  0.008732320199080807  0.30120477664755513  1.0000
  C   C12       1.0  0.9477646984498184  0.5087323199270446  0.6987952233146747  1.0000
  C   C13       1.0  0.09137780104234847  0.9575377914336204  0.6887277078595804  1.0000
  C   C14       1.0  0.9086221994273825  0.4575377917056565  0.31127229210264934  1.0000
  C   C15       1.0  0.9086221994273825  0.042462208603232326  0.31127229210264934  1.0000
  C   C16       1.0  0.09137780104234847  0.5424622083311961  0.6887277078595804  1.0000
  C   C17       1.0  0.19319775929218155  0.998646750805651  0.637146415060061  1.0000
  C   C18       1.0  0.8068022411775495  0.4986467504967623  0.36285358490216874  1.0000
  C   C19       1.0  0.8068022411775495  0.0013532492312015147  0.36285358490216874  1.0000
  C   C20       1.0  0.19319775929218155  0.5013532495400903  0.637146415060061  1.0000
  C   C21       1.0  0.15094041725164276  0.07378808389754325  0.5931098882714817  1.0000
  C   C22       1.0  0.8490595820570485  0.573788083625507  0.4068901116881701  1.0000
  C   C23       1.0  0.8490595820570485  0.9262119161393093  0.4068901116881701  1.0000
  C   C24       1.0  0.15094041725164276  0.4262119158304205  0.5931098882714817  1.0000
  C   C25       1.0  0.005871870413121471  0.1065678182524474  0.6000125321800515  1.0000
  C   C26       1.0  0.9941281300566095  0.6065678185613362  0.39998746778217836  1.0000
  C   C27       1.0  0.9941281300566095  0.8934321817844052  0.39998746778217836  1.0000
  C   C28       1.0  0.005871870413121471  0.39343218147551634  0.6000125321800515  1.0000
  C   C29       1.0  0.9352762391076039  0.183417541592888  0.5703949624111013  1.0000
  C   C30       1.0  0.06472376020108735  0.6834175419017768  0.42960503754855034  1.0000
  C   C31       1.0  0.06472376020108735  0.8165824584439646  0.42960503754855034  1.0000
  C   C32       1.0  0.9352762391076039  0.31658245813507574  0.5703949624111013  1.0000
  C   C33       1.0  0.6026667105978833  0.18326525673705768  0.7331307109425264  1.0000
  C   C34       1.0  0.39733328987184763  0.6832652570459465  0.2668692890197034  1.0000
  C   C35       1.0  0.39733328987184763  0.8167347432997949  0.2668692890197034  1.0000
  C   C36       1.0  0.6026667105978833  0.3167347429909061  0.7331307109425264  1.0000
  C   C37       1.0  0.5425388199158993  0.2083728021880358  0.8252754260735772  1.0000
  C   C38       1.0  0.45746117939279196  0.7083728019159996  0.17472457388607454  1.0000
  C   C39       1.0  0.45746117939279196  0.7916271978488167  0.17472457388607454  1.0000
  C   C40       1.0  0.5425388199158993  0.291627198120853  0.8252754260735772  1.0000
  C   C41       1.0  0.506467872153565  0.16705921312714736  0.9119547963754678  1.0000
  C   C42       1.0  0.49353212715512623  0.6670592134360361  0.08804520358418386  1.0000
  C   C43       1.0  0.49353212715512623  0.8329407869097052  0.08804520358418386  1.0000
  C   C44       1.0  0.506467872153565  0.33294078660081644  0.9119547963754678  1.0000
  C   C45       1.0  0.472181332014679  0.20871264973552592  0.999980958562601  1.0000
  C   C46       1.0  0.527818668455052  0.7087126500444147  1.9041399628716078e-05  1.0000
  C   C47       1.0  0.527818668455052  0.7912873503013267  1.9041399628716078e-05  1.0000
  C   C48       1.0  0.472181332014679  0.2912873499924379  0.999980958562601  1.0000
  C   C49       1.0  0.922995832042905  0.2500000001544444  0.007573283714494957  1.0000
  C   C50       1.0  0.07700416842682595  0.7499999998824082  0.9924267162477348  1.0000
  C   C51       1.0  0.965146294192764  0.17964774986025453  0.9676605082751751  1.0000
  C   C52       1.0  0.03485370627696693  0.6796477501691434  0.032339491687054585  1.0000
  C   C53       1.0  0.03485370627696693  0.8203522501765981  0.032339491687054585  1.0000
  C   C54       1.0  0.965146294192764  0.3203522498677092  0.9676605082751751  1.0000
  C   C55       1.0  0.050426569357949855  0.17972065827838718  0.8880104369097338  1.0000
  C   C56       1.0  0.9495734299507412  0.679720658587276  0.11198956304991793  1.0000
  C   C57       1.0  0.9495734299507412  0.8202793417584654  0.11198956304991793  1.0000
  C   C58       1.0  0.050426569357949855  0.3202793414495766  0.8880104369097338  1.0000
  C   C59       1.0  0.09262240861100605  0.2500000001544444  0.8477890120125094  1.0000
  C   C60       1.0  0.9073775918587249  0.7499999998824082  0.1522109879497202  1.0000
  N   N1        1.0  0.6704476275374712  0.1158596622277317  0.7178905329584632  1.0000
  N   N2        1.0  0.32955237177122004  0.6158596625366205  0.28210946700118866  1.0000
  N   N3        1.0  0.32955237177122004  0.8841403372281958  0.28210946700118866  1.0000
  N   N4        1.0  0.6704476275374712  0.3841403375002321  0.7178905329584632  1.0000
  N   N5        1.0  0.789373350985567  0.1811988034918397  0.5932009199076018  1.0000
  N   N6        1.0  0.21062664832312414  0.6811988038007285  0.40679908005205  1.0000
  N   N7        1.0  0.21062664832312414  0.8188011965450129  0.40679908005205  1.0000
  N   N8        1.0  0.789373350985567  0.3188011962361241  0.5932009199076018  1.0000
  N   N9        1.0  0.616512382895017  0.2500000001544444  0.6757417286435852  1.0000
  N   N10       1.0  0.3834876167873946  0.7499999998824082  0.32425827216925396  1.0000
  N   N11       1.0  0.003546655987799185  0.2500000001544444  0.5517873345219159  1.0000
  N   N12       1.0  0.9964533444819318  0.7499999998824082  0.44821266544031385  1.0000
  Cl  Cl1       1.0  0.8302221861452357  0.943105366043383  0.7661978142644924  1.0000
  Cl  Cl2       1.0  0.16977781316345544  0.4431053657344943  0.23380218569515923  1.0000
  Cl  Cl3       1.0  0.16977781316345544  0.05689463399346948  0.23380218569515923  1.0000
  Cl  Cl4       1.0  0.8302221861452357  0.5568946343023583  0.7661978142644924  1.0000
  Cl  Cl5       1.0  0.14232410642865206  0.8650495557304342  0.7369295393684859  1.0000
  Cl  Cl6       1.0  0.857675894041079  0.36504955542154544  0.2630704605937439  1.0000
  Cl  Cl7       1.0  0.857675894041079  0.13495044430641837  0.2630704605937439  1.0000
  Cl  Cl8       1.0  0.14232410642865206  0.6349504446153073  0.7369295393684859  1.0000
  Cl  Cl9       1.0  0.3675023436177847  0.9561228380858265  0.6277800733382534  1.0000
  Cl  Cl10      1.0  0.6324976568519464  0.4561228383578627  0.37221992662397635  1.0000
  Cl  Cl11      1.0  0.6324976568519464  0.0438771619510261  0.37221992662397635  1.0000
  Cl  Cl12      1.0  0.3675023436177847  0.5438771616789899  0.6277800733382534  1.0000
  Cl  Cl13      1.0  0.27046817516555133  0.12393018969925958  0.5293283191680761  1.0000
  Cl  Cl14      1.0  0.7295318253041797  0.6239301900081483  0.4706716807941537  1.0000
  Cl  Cl15      1.0  0.7295318253041797  0.8760698103375931  0.4706716807941537  1.0000
  Cl  Cl16      1.0  0.27046817516555133  0.3760698100287042  0.5293283191680761  1.0000
  Cl  Cl17      1.0  0.428257564745739  0.15986831133668553  0.10726600670468485  1.0000
  Cl  Cl18      1.0  0.571742435723992  0.6598683116455744  0.8927339932575449  1.0000
  Cl  Cl19      1.0  0.571742435723992  0.8401316887001671  0.8927339932575449  1.0000
  Cl  Cl20      1.0  0.428257564745739  0.3401316883912783  0.10726600670468485  1.0000
  Cl  Cl21      1.0  0.5035840382627198  0.06778106960952882  0.9099796029445778  1.0000
  Cl  Cl22      1.0  0.4964159610459715  0.5677810699184177  0.09002039701507403  1.0000
  Cl  Cl23      1.0  0.4964159610459715  0.9322189304273236  0.09002039701507403  1.0000
  Cl  Cl24      1.0  0.5035840382627198  0.432218930118435  0.9099796029445778  1.0000
  Br  Br1       1.0  0.5023747021731818  0.2500000001544444  0.4213372357877586  1.0000
  Br  Br2       1.0  0.49762529829654917  0.7499999998824082  0.5786627641744712  1.0000
