data_image0
_chemical_formula_structural       H78C48N2O2Br2
_chemical_formula_sum              "H78 C48 N2 O2 Br2"
_cell_length_a       7.493865892773079
_cell_length_b       8.044034475809138
_cell_length_c       20.341192723324472
_cell_angle_alpha    79.88582605797171
_cell_angle_beta     82.14870260514303
_cell_angle_gamma    69.03744762404118

_space_group_name_H-M_alt    "P 1"
_space_group_IT_number       1

loop_
  _space_group_symop_operation_xyz
  'x, y, z'

loop_
  _atom_site_type_symbol
  _atom_site_label
  _atom_site_symmetry_multiplicity
  _atom_site_fract_x
  _atom_site_fract_y
  _atom_site_fract_z
  _atom_site_occupancy
  H   H1        1.0  0.1164384330499497  0.8941007926668235  0.5692256252180071  1.0000
  H   H2        1.0  0.8835615663480445  0.10589920739450265  0.43077437505821636  1.0000
  H   H3        1.0  0.2721420464853657  0.8429306074537636  0.4514168288814484  1.0000
  H   H4        1.0  0.7278579543551555  0.15706939279107127  0.5485831708906731  1.0000
  H   H5        1.0  0.40264335579024885  0.6306151505036685  0.36558854159764675  1.0000
  H   H6        1.0  0.5973566437172811  0.3693848497345092  0.6344114581776042  1.0000
  H   H7        1.0  0.4725198738059487  0.32456904509731255  0.33567426412353035  1.0000
  H   H8        1.0  0.5274801255920457  0.6754309549640136  0.6643257361526931  1.0000
  H   H9        1.0  0.4084014206874382  0.08436634647437655  0.41771660557465123  1.0000
  H   H10       1.0  0.5915985800435472  0.9156336535936069  0.5822833946984427  1.0000
  H   H11       1.0  0.2552717597356188  0.1505025805514077  0.5333149826020038  1.0000
  H   H12       1.0  0.7447282411049023  0.8494974196934273  0.4666850171701176  1.0000
  H   H13       1.0  0.11137875639779032  0.36999248931212747  0.6129665859263234  1.0000
  H   H14       1.0  0.8886212431097396  0.6300075109260503  0.3870334138489277  1.0000
  H   H15       1.0  0.9156290857874687  0.5956725181950089  0.6724529032805355  1.0000
  H   H16       1.0  0.08437091372006113  0.40432748204316893  0.3275470964947155  1.0000
  H   H17       1.0  0.9327803637632912  0.8157067476437846  0.6550148730659034  1.0000
  H   H18       1.0  0.06721963707722989  0.18429325260105048  0.344985126706218  1.0000
  H   H19       1.0  0.26137865009275085  0.6897922959945515  0.6954203809957256  1.0000
  H   H20       1.0  0.7386213494147791  0.31020770424362626  0.3045796187795255  1.0000
  H   H21       1.0  0.23427337958281497  0.47574140146907673  0.718950106148508  1.0000
  H   H22       1.0  0.7657266199247151  0.524258598769101  0.2810498936267431  1.0000
  H   H23       1.0  0.9882500649721399  0.831828862679897  0.7701981342829041  1.0000
  H   H24       1.0  0.011749934535390099  0.16817113755828073  0.229801865492347  1.0000
  H   H25       1.0  0.9368127021768583  0.6305510050924965  0.7945986436069281  1.0000
  H   H26       1.0  0.06318729722113602  0.3694489949688295  0.20540135666929535  1.0000
  H   H27       1.0  0.30901724016977017  0.6801098953904108  0.8188576214697446  1.0000
  H   H28       1.0  0.6909827592282242  0.3198901046709153  0.18114237880647877  1.0000
  H   H29       1.0  0.25131827244494215  0.48312856035181106  0.8446552687132562  1.0000
  H   H30       1.0  0.748681726953052  0.516871439709515  0.15534473156296721  1.0000
  H   H31       1.0  0.03474998519149946  0.8504467593715364  0.8914931509064286  1.0000
  H   H32       1.0  0.9652500142064948  0.14955324068978973  0.10850684936979489  1.0000
  H   H33       1.0  0.9575020806772175  0.663982418403852  0.9134997320138873  1.0000
  H   H34       1.0  0.042497920053767964  0.3360175816641313  0.08650026825920659  1.0000
  H   H35       1.0  0.34413821348998724  0.6705566355380287  0.9450163938409899  1.0000
  H   H36       1.0  0.6558617877571633  0.329443363197717  0.05498360643482743  1.0000
  H   H37       1.0  0.2639268426936752  0.48588333670576234  0.9667149433158162  1.0000
  H   H38       1.0  0.7360731568138548  0.5141166635324155  0.03328505645943477  1.0000
  H   H39       1.0  0.07195742874011504  0.8524160885194587  0.016765552877644023  1.0000
  H   H40       1.0  0.9280425721004062  0.1475839117253761  0.9832344468944776  1.0000
  H   H41       1.0  0.9791528428629631  0.6754658883603392  0.03560599148263736  1.0000
  H   H42       1.0  0.020847157977558137  0.32453411188449577  0.9643940082894842  1.0000
  H   H43       1.0  0.2785766337384738  0.4774785482938033  0.09016434870020355  1.0000
  H   H44       1.0  0.7214233661756857  0.5225214504352851  0.9098356515787434  1.0000
  H   H45       1.0  0.3735481794701121  0.6526054335306305  0.07114178980083513  1.0000
  H   H46       1.0  0.6264518212608735  0.34739456653735273  0.9288582104722588  1.0000
  H   H47       1.0  0.001898543608703059  0.6727687214943403  0.15980169310490605  1.0000
  H   H48       1.0  0.9981014571222824  0.3272312785736429  0.8401983071681879  1.0000
  H   H49       1.0  0.10449640458582653  0.8423102224871376  0.1425256238334107  1.0000
  H   H50       1.0  0.8955035948121678  0.15768977757418845  0.8574743764428127  1.0000
  H   H51       1.0  0.4004896062821333  0.6331092540413431  0.19840821387002522  1.0000
  H   H52       1.0  0.5995103932253966  0.36689074619683465  0.8015917859052257  1.0000
  H   H53       1.0  0.29702649969877226  0.4625193810043588  0.21657021363520357  1.0000
  H   H54       1.0  0.7029734998087577  0.5374806192338191  0.7834297861400474  1.0000
  H   H55       1.0  0.18958326736688175  0.664293855929338  0.25395568100389754  1.0000
  H   H56       1.0  0.810416732140648  0.3357061443088399  0.7460443187713535  1.0000
  H   H57       1.0  0.7047090125941796  0.04545073924461656  0.7121149583211539  1.0000
  H   H58       1.0  0.29529098680381455  0.9545492608167095  0.2878850419550696  1.0000
  H   H59       1.0  0.5933019691163287  0.8818508990377733  0.7154930336292502  1.0000
  H   H60       1.0  0.40669803028166585  0.11814910102355274  0.28450696664697317  1.0000
  H   H61       1.0  0.3048531969900435  0.07140436078316773  0.7798183763436205  1.0000
  H   H62       1.0  0.6951468024079508  0.9285956392781584  0.2201816239326029  1.0000
  H   H63       1.0  0.4159209879879554  0.23329505509052004  0.7763673065076391  1.0000
  H   H64       1.0  0.5840790115195745  0.7667049451476577  0.22363269326761193  1.0000
  H   H65       1.0  0.5688406155824268  0.8420616099696364  0.844651933944834  1.0000
  H   H66       1.0  0.43115938525809416  0.15793839027519843  0.15534806582728758  1.0000
  H   H67       1.0  0.6915485536457538  0.995766907043279  0.8360597107148054  1.0000
  H   H68       1.0  0.30845144637794114  0.004233091862661321  0.1639402890631689  1.0000
  H   H69       1.0  0.2982824472666341  0.04021984200127415  0.9129194273883556  1.0000
  H   H70       1.0  0.7017175527570612  0.959780156904666  0.0870805723896186  1.0000
  H   H71       1.0  0.4123676706521268  0.20163121044779822  0.9009160541743099  1.0000
  H   H72       1.0  0.5876323300788586  0.7983687896201851  0.09908394609878411  1.0000
  H   H73       1.0  0.5753262371968745  0.8174184440704383  0.9737707125352721  1.0000
  H   H74       1.0  0.42467376220111996  0.18258155599088757  0.026229287740951384  1.0000
  H   H75       1.0  0.6942518208609255  0.9751832362986463  0.9595154019595942  1.0000
  H   H76       1.0  0.30574817864660436  0.02481676393953165  0.04048459781565678  1.0000
  H   H77       1.0  0.35156896651023384  0.11196402901963062  0.6566575438503904  1.0000
  H   H78       1.0  0.6484310342207519  0.8880359710483526  0.3433424564227035  1.0000
  C   C1        1.0  0.15362951582249054  0.7676307278641802  0.5489728645441361  1.0000
  C   C2        1.0  0.8463704835755038  0.232369272197146  0.4510271357320874  1.0000
  C   C3        1.0  0.23858085744068008  0.7367073569656252  0.48620229423079453  1.0000
  C   C4        1.0  0.7614191420668499  0.26329264327255264  0.5137977055444565  1.0000
  C   C5        1.0  0.2854459089808751  0.5652372355573152  0.4657857501779023  1.0000
  C   C6        1.0  0.7145540917501103  0.43476276451066803  0.5342142500951916  1.0000
  C   C7        1.0  0.36970649002625905  0.5256417041843104  0.40125714300775334  1.0000
  C   C8        1.0  0.6302935094812709  0.4743582960538673  0.5987428567674978  1.0000
  C   C9        1.0  0.4096146261108656  0.3552501852147021  0.38556663173050904  1.0000
  C   C10       1.0  0.5903853746201199  0.6447498148532812  0.6144333685425849  1.0000
  C   C11       1.0  0.3714114941216826  0.217415710442057  0.4327024191986517  1.0000
  C   C12       1.0  0.6285885053858474  0.7825842897961208  0.5672975805765993  1.0000
  C   C13       1.0  0.288616915813604  0.25237370827515754  0.49579264244324944  1.0000
  C   C14       1.0  0.7113830855430824  0.7476262906374398  0.5042073573315954  1.0000
  C   C15       1.0  0.24306338923885482  0.4273053557780529  0.5130049854232115  1.0000
  C   C16       1.0  0.7569366102686751  0.572694644460125  0.4869950143520395  1.0000
  C   C17       1.0  0.15306226158012165  0.46927195187643117  0.5760985127872759  1.0000
  C   C18       1.0  0.8469377392603993  0.5307280483684037  0.42390148698484575  1.0000
  C   C19       1.0  0.01453532514022973  0.6712432627983114  0.6596786703370694  1.0000
  C   C20       1.0  0.9854646748834651  0.3287567361076288  0.340321329440905  1.0000
  C   C21       1.0  0.15663526646478207  0.6217387397161793  0.712786315084379  1.0000
  C   C22       1.0  0.8433647343757389  0.3782612605286556  0.28721368468774267  1.0000
  C   C23       1.0  0.05427209117007953  0.6844323361728706  0.7788787460006056  1.0000
  C   C24       1.0  0.9457279083374506  0.3155676640653072  0.22112125377464545  1.0000
  C   C25       1.0  0.18799342165874175  0.6309236890202098  0.8350807213177804  1.0000
  C   C26       1.0  0.8120065777392526  0.3690763110411163  0.164919278958443  1.0000
  C   C27       1.0  0.08664491629678094  0.7021967985844606  0.9000528019252373  1.0000
  C   C28       1.0  0.9133550831012134  0.2978032014768657  0.09994719835098616  1.0000
  C   C29       1.0  0.2137728087118413  0.634250738718084  0.958531503828632  1.0000
  C   C30       1.0  0.7862271907956887  0.36574926152009385  0.04146849594661898  1.0000
  C   C31       1.0  0.11415246302661679  0.704505523355516  0.02384160479455514  1.0000
  C   C32       1.0  0.8858475378139045  0.29549447688931907  0.9761583949775663  1.0000
  C   C33       1.0  0.23769458055178302  0.6253642355112398  0.08309881974607013  1.0000
  C   C34       1.0  0.7623054188462114  0.37463576455008635  0.9169011805301532  1.0000
  C   C35       1.0  0.14039855386337066  0.6952240708091287  0.14869955867802323  1.0000
  C   C36       1.0  0.8596014474933157  0.3047759281034686  0.8513004410968217  1.0000
  C   C37       1.0  0.263196527389666  0.6092245840109844  0.20788018172254738  1.0000
  C   C38       1.0  0.7368034720083285  0.3907754160503415  0.7921198185536761  1.0000
  C   C39       1.0  0.5650473808879873  0.027152236110843053  0.7147195741501952  1.0000
  C   C40       1.0  0.4349526185100069  0.9728477639504833  0.2852804261260283  1.0000
  C   C41       1.0  0.44498467189632696  0.08819385532578208  0.7784127147749685  1.0000
  C   C42       1.0  0.5550153275016673  0.911806144735544  0.22158728550125492  1.0000
  C   C43       1.0  0.5468663223709994  0.9864917909892772  0.8411468797737288  1.0000
  C   C44       1.0  0.453133677026995  0.013508209072048999  0.1588531205024946  1.0000
  C   C45       1.0  0.44039507857987853  0.05574340721663808  0.9058775492178704  1.0000
  C   C46       1.0  0.5596049209276515  0.9442565930215397  0.09412245055738065  1.0000
  C   C47       1.0  0.5506180949172691  0.9629144707305889  0.967729615386805  1.0000
  C   C48       1.0  0.44938190581371634  0.037085529337394466  0.03227038488628891  1.0000
  N   N1        1.0  0.11009073141146486  0.6331534706240018  0.5925461449894162  1.0000
  N   N2        1.0  0.8899092694290563  0.36684652962083314  0.4074538547827053  1.0000
  O   O1        1.0  0.47871807434892255  0.12657890533914531  0.6545748529393607  1.0000
  O   O2        1.0  0.5212819250490717  0.8734210947221808  0.34542514733686275  1.0000
  Br  Br1       1.0  0.06030919302021616  0.0930035933272381  0.6618225327598568  1.0000
  Br  Br2       1.0  0.9396908064873138  0.9069964069109397  0.33817746701539414  1.0000
