data_image0
_chemical_formula_structural       H82C50N2O2Br2
_chemical_formula_sum              "H82 C50 N2 O2 Br2"
_cell_length_a       7.2433295921627705
_cell_length_b       7.524703145545517
_cell_length_c       21.959009146766306
_cell_angle_alpha    81.43965230588546
_cell_angle_beta     84.6871532212233
_cell_angle_gamma    77.78278327285847

_space_group_name_H-M_alt    "P 1"
_space_group_IT_number       1

loop_
  _space_group_symop_operation_xyz
  'x, y, z'

loop_
  _atom_site_type_symbol
  _atom_site_label
  _atom_site_symmetry_multiplicity
  _atom_site_fract_x
  _atom_site_fract_y
  _atom_site_fract_z
  _atom_site_occupancy
  H   H1        1.0  0.7288083884258096  0.01835021917677341  0.7858484113664393  1.0000
  H   H2        1.0  0.2711916121470048  0.9816497806498382  0.2141515885795836  1.0000
  H   H3        1.0  0.7726560951670244  0.19096412292378193  0.6923065329046112  1.0000
  H   H4        1.0  0.2273439039257424  0.8090358767145531  0.3076934674986313  1.0000
  H   H5        1.0  0.6260037165739236  0.033843140982269475  0.6858967195486345  1.0000
  H   H6        1.0  0.37399628399889084  0.9661568588443423  0.3141032803973884  1.0000
  H   H7        1.0  0.9127716966183745  0.8091319375493407  0.6527226028688307  1.0000
  H   H8        1.0  0.08722830385236245  0.19086806209513024  0.3472773975386204  1.0000
  H   H9        1.0  0.055482968044122075  0.9681423188849011  0.6580701787884216  1.0000
  H   H10       1.0  0.944517032426615  0.03185768075956987  0.34192982161902946  1.0000
  H   H11       1.0  0.8737623923301445  0.1916836009612324  0.5770334060072554  1.0000
  H   H12       1.0  0.12623760824266994  0.8083163988653794  0.4229665939387676  1.0000
  H   H13       1.0  0.731159488482813  0.03321586401038892  0.5713321702031777  1.0000
  H   H14       1.0  0.26884051209000137  0.9667841358162226  0.4286678297428452  1.0000
  H   H15       1.0  0.1617297068041383  0.9681274834894907  0.5434147363049215  1.0000
  H   H16       1.0  0.838270293768676  0.031872516337120904  0.45658526364110136  1.0000
  H   H17       1.0  0.019701681452729825  0.8090597615992813  0.5378441781080044  1.0000
  H   H18       1.0  0.9802983177421144  0.19094023822119474  0.46215582183381004  1.0000
  H   H19       1.0  0.20729702923439872  0.4584167347157265  0.8789639517111499  1.0000
  H   H20       1.0  0.7927029713384156  0.5415832651108852  0.12103604823487311  1.0000
  H   H21       1.0  0.3448254552620931  0.9366255905717233  0.9182772296778652  1.0000
  H   H22       1.0  0.6551745453107212  0.0633744092548885  0.08172277026815786  1.0000
  H   H23       1.0  0.3452256631666684  0.8214723433281287  0.033171000085308905  1.0000
  H   H24       1.0  0.6547743370993176  0.17852765785823108  0.9668289998606657  1.0000
  H   H25       1.0  0.2858419767291228  0.5770354968255844  0.11881551526490806  1.0000
  H   H26       1.0  0.7141580238436915  0.42296450300102734  0.881184484681115  1.0000
  H   H27       1.0  0.2164004135747658  0.26368456193818773  0.151411483513763  1.0000
  H   H28       1.0  0.7835995869980485  0.736315437888424  0.84858851643226  1.0000
  H   H29       1.0  0.16761608145962295  0.07425590623468822  0.07435420607632061  1.0000
  H   H30       1.0  0.8323839191131914  0.9257440935919234  0.9256457938697024  1.0000
  H   H31       1.0  0.17510182691491333  0.19835155953530323  0.961619137808556  1.0000
  H   H32       1.0  0.8248981722799308  0.8016484402851726  0.03838086213325857  1.0000
  H   H33       1.0  0.2663868112403768  0.9257503827345198  0.8284082155550287  1.0000
  H   H34       1.0  0.7336131890256095  0.07424961845184004  0.17159178439094597  1.0000
  H   H35       1.0  0.11661968944066486  0.7763148212767461  0.8167389594956159  1.0000
  H   H36       1.0  0.8833803111321494  0.2236851785498658  0.18326104045040703  1.0000
  H   H37       1.0  0.5509437726017432  0.7037434584564114  0.8013302920748936  1.0000
  H   H38       1.0  0.44905622797107114  0.2962565413702004  0.19866970787112936  1.0000
  H   H39       1.0  0.4200360027661206  0.5311467808548399  0.7998230686204498  1.0000
  H   H40       1.0  0.5799639978066937  0.4688532189717719  0.20017693132557302  1.0000
  H   H41       1.0  0.3793003831147347  0.8956522413115671  0.7134229976308454  1.0000
  H   H42       1.0  0.6206996174580798  0.10434775851504487  0.2865770023151776  1.0000
  H   H43       1.0  0.24265053094615852  0.7287930536328396  0.71219931830998  1.0000
  H   H44       1.0  0.7573494679418574  0.27120694754738445  0.28780068163178607  1.0000
  H   H45       1.0  0.5355640706715491  0.5001556284179582  0.6875341956943539  1.0000
  H   H46       1.0  0.46443592990126525  0.4998443714086534  0.312465804251669  1.0000
  H   H47       1.0  0.675038290401939  0.6638210647052657  0.6906052316156515  1.0000
  H   H48       1.0  0.32496170879290515  0.3361789351152103  0.3093947683261629  1.0000
  H   H49       1.0  0.3609413980654121  0.7073420791678752  0.6013938638913312  1.0000
  H   H50       1.0  0.6390586025074023  0.2926579206587367  0.39860613605469175  1.0000
  H   H51       1.0  0.5001935501682376  0.870386625510221  0.6045117609372949  1.0000
  H   H52       1.0  0.4998064504045767  0.1296133743163909  0.3954882390087282  1.0000
  H   H53       1.0  0.6506135036168018  0.48007391296689483  0.572819445774665  1.0000
  H   H54       1.0  0.34938649695601254  0.5199260868597171  0.42718055417135786  1.0000
  H   H55       1.0  0.7927162454322657  0.6398614079210516  0.5774137484332142  1.0000
  H   H56       1.0  0.20728375514054856  0.3601385919055602  0.42258625151280865  1.0000
  H   H57       1.0  0.4753061950647429  0.6965152881205766  0.48874468630562523  1.0000
  H   H58       1.0  0.5246938041301012  0.30348471169989943  0.5112553136361893  1.0000
  H   H59       1.0  0.6171161436467714  0.8561469521097897  0.49360202584037277  1.0000
  H   H60       1.0  0.38288385692604304  0.14385304771682222  0.5063979741056501  1.0000
  H   H61       1.0  0.7631289807574003  0.46937441224426185  0.4581374879625265  1.0000
  H   H62       1.0  0.23687101950858577  0.5306255889420978  0.5418625119834481  1.0000
  H   H63       1.0  0.9071402010972681  0.626292391453694  0.4641803909151191  1.0000
  H   H64       1.0  0.09285979809757616  0.37370760836678185  0.5358196090266953  1.0000
  H   H65       1.0  0.5893959973547321  0.692061338721147  0.37511874102866943  1.0000
  H   H66       1.0  0.4106040032180822  0.3079386611054648  0.6248812589173535  1.0000
  H   H67       1.0  0.73263577594902  0.849168324152827  0.3816393103528034  1.0000
  H   H68       1.0  0.2673642231437467  0.1508316754855082  0.6183606900504391  1.0000
  H   H69       1.0  0.02164189986454633  0.6176445779091837  0.3512919220730436  1.0000
  H   H70       1.0  0.9783581004014399  0.3823554232771761  0.648708077872931  1.0000
  H   H71       1.0  0.8745299889275429  0.46568640127816446  0.34294641170299456  1.0000
  H   H72       1.0  0.12547001164527155  0.5343135985484473  0.6570535882430284  1.0000
  H   H73       1.0  0.8549928379764015  0.8485063543514324  0.26950228942632565  1.0000
  H   H74       1.0  0.14500716259641297  0.15149364547517943  0.7304977105196973  1.0000
  H   H75       1.0  0.704169108287659  0.6998910978275709  0.26119179394325814  1.0000
  H   H76       1.0  0.2958308909071852  0.3001089019929051  0.7388082059985562  1.0000
  H   H77       1.0  0.9592320834005682  0.6781498905616354  0.17854717720978938  1.0000
  H   H78       1.0  0.040767915794275855  0.32185010925884033  0.821452822732025  1.0000
  H   H79       1.0  0.993934079001941  0.46588150544357987  0.22855892766985353  1.0000
  H   H80       1.0  0.006065920192903081  0.534118494376896  0.7714410722719609  1.0000
  H   H81       1.0  0.13641475016535015  0.6282654208744313  0.23240890031286404  1.0000
  H   H82       1.0  0.8635852503053868  0.3717345787700398  0.7675911000945869  1.0000
  C   C1        1.0  0.7707347340532353  0.04327167456589556  0.6953719832248569  1.0000
  C   C2        1.0  0.22926526514160891  0.9567283252545805  0.3046280167169575  1.0000
  C   C3        1.0  0.9131384264023951  0.9568920457484387  0.6476152956678563  1.0000
  C   C4        1.0  0.0868615741704194  0.043107954078173014  0.3523847042781667  1.0000
  C   C5        1.0  0.87447200700043  0.04366112836114895  0.5813686188106174  1.0000
  C   C6        1.0  0.12552799219441418  0.9563388714593272  0.4186313811311969  1.0000
  C   C7        1.0  0.018602399332477863  0.9572582427164185  0.5332562430564501  1.0000
  C   C8        1.0  0.9813976012403364  0.042741757110193415  0.4667437568895728  1.0000
  C   C9        1.0  0.2330523585048607  0.5338221119969739  0.9148763643396906  1.0000
  C   C10       1.0  0.7669476420679537  0.46617788782963787  0.08512363560633233  1.0000
  C   C11       1.0  0.307344390017409  0.8061772317576809  0.9386745607608238  1.0000
  C   C12       1.0  0.6926556105554055  0.19382276806893073  0.06132543918519928  1.0000
  C   C13       1.0  0.30795115835934056  0.7413032135459992  0.0002660388708276738  1.0000
  C   C14       1.0  0.6920488422134738  0.25869678628061255  0.9997339610751953  1.0000
  C   C15       1.0  0.26640732448981747  0.5660141560255861  0.0218937417523613  1.0000
  C   C16       1.0  0.733592676082997  0.4339858438010257  0.9781062581936616  1.0000
  C   C17       1.0  0.25885510166209363  0.4938818939648266  0.0851769086447698  1.0000
  C   C18       1.0  0.7411448975327506  0.5061181058556493  0.9148230912970446  1.0000
  C   C19       1.0  0.22144878456505676  0.32039492163499206  0.10273904838688366  1.0000
  C   C20       1.0  0.7785512160077577  0.6796050781916196  0.8972609515591393  1.0000
  C   C21       1.0  0.19189582664495264  0.21201230565150236  0.0584049365958329  1.0000
  C   C22       1.0  0.8081041725498915  0.7879876941689735  0.9415950633459816  1.0000
  C   C23       1.0  0.19671953157103203  0.2791266069433684  0.9965657594436816  1.0000
  C   C24       1.0  0.8032804690017823  0.7208733928832435  0.003434240502341269  1.0000
  C   C25       1.0  0.2326062477761313  0.4577801444490331  0.9772803866920444  1.0000
  C   C26       1.0  0.767393752796683  0.5422198553775787  0.02271961325397841  1.0000
  C   C27       1.0  0.25671300919310974  0.7812276837447353  0.8310266461131963  1.0000
  C   C28       1.0  0.7432869900017344  0.21877231607574069  0.16897335382861808  1.0000
  C   C29       1.0  0.41385921544051546  0.6801419060534671  0.7904589248621976  1.0000
  C   C30       1.0  0.5861407837543289  0.3198580937670088  0.20954107507961678  1.0000
  C   C31       1.0  0.38281082808270456  0.7469795305017827  0.7225697555737798  1.0000
  C   C32       1.0  0.6171891711121397  0.2530204693186932  0.27743024436803465  1.0000
  C   C33       1.0  0.5344657248071648  0.6486033460551132  0.6794081474394937  1.0000
  C   C34       1.0  0.46553427438767947  0.35139665376536283  0.32059185250232064  1.0000
  C   C35       1.0  0.5027070123787076  0.7216061244563602  0.611799987957485  1.0000
  C   C36       1.0  0.49729298788727844  0.27839387672999955  0.3882000119884896  1.0000
  C   C37       1.0  0.6505972307444985  0.6282594002523265  0.5664855815497716  1.0000
  C   C38       1.0  0.3494027684503457  0.3717405995681495  0.43351441839204286  1.0000
  C   C39       1.0  0.6178440978705283  0.7078242202824955  0.4993920631038509  1.0000
  C   C40       1.0  0.38215590132431604  0.2921757795379806  0.5006079368379635  1.0000
  C   C41       1.0  0.7643603842842824  0.6171723233089579  0.4530364499739516  1.0000
  C   C42       1.0  0.23563961491056185  0.3828276765115181  0.5469635499678627  1.0000
  C   C43       1.0  0.7321797484283555  0.701281529024229  0.38626225038476236  1.0000
  C   C44       1.0  0.2678202521444588  0.2987184708023828  0.6137377495612605  1.0000
  C   C45       1.0  0.8783641599350174  0.6126957412588206  0.33933337510345923  1.0000
  C   C46       1.0  0.1216358392598269  0.3873042585616552  0.6606666248383553  1.0000
  C   C47       1.0  0.848096248639457  0.7024468960045291  0.2729772031920879  1.0000
  C   C48       1.0  0.15190375055538724  0.29755310381594663  0.7270227967497266  1.0000
  C   C49       1.0  0.9920699803818507  0.6135992787270732  0.22565887316525401  1.0000
  C   C50       1.0  0.00793002019096347  0.38640072109953855  0.774341126780769  1.0000
  N   N1        1.0  0.26571385624744664  0.7027252677307917  0.8971240875353442  1.0000
  N   N2        1.0  0.7342861440185395  0.29727473345556804  0.10287591241063045  1.0000
  O   O1        1.0  0.8170511257410378  0.9514058525683929  0.7557278665209184  1.0000
  O   O2        1.0  0.18294887483177666  0.048594147258218805  0.24427213342510457  1.0000
  Br  Br1       1.0  0.5159074970978764  0.16538320969794018  0.8535403513817029  1.0000
  Br  Br2       1.0  0.4840925020969677  0.8346167901225356  0.14645964856011157  1.0000
