data_image0
_chemical_formula_structural       H70C98N6O4
_chemical_formula_sum              "H70 C98 N6 O4"
_cell_length_a       10.674639236911217
_cell_length_b       16.11675038138289
_cell_length_c       10.911966266539773
_cell_angle_alpha    90.0
_cell_angle_beta     116.70852256443918
_cell_angle_gamma    90.0

_space_group_name_H-M_alt    "P 1"
_space_group_IT_number       1

loop_
  _space_group_symop_operation_xyz
  'x, y, z'

loop_
  _atom_site_type_symbol
  _atom_site_label
  _atom_site_symmetry_multiplicity
  _atom_site_fract_x
  _atom_site_fract_y
  _atom_site_fract_z
  _atom_site_occupancy
  H   H1        1.0  0.35670497585289745  0.5751750297447118  0.9005230558163659  1.0000
  H   H2        1.0  0.6432950249033909  0.07517502978761413  0.09947694397249761  1.0000
  H   H3        1.0  0.07129657794898797  0.7176891641482082  0.7878865105749824  1.0000
  H   H4        1.0  0.9287034217549364  0.21768916357063786  0.2121134896643849  1.0000
  H   H5        1.0  0.9674963640284843  0.7687015947278679  0.9369218845270373  1.0000
  H   H6        1.0  0.03250363567912008  0.26870159477077016  0.06307811479752846  1.0000
  H   H7        1.0  0.964054490224956  0.7695955714700183  0.1639406014526697  1.0000
  H   H8        1.0  0.03594551052765222  0.2695955715129205  0.8360593992509953  1.0000
  H   H9        1.0  0.06388623567017758  0.7215333255662298  0.4068501467698198  1.0000
  H   H10       1.0  0.9361137640374269  0.22153332560913214  0.5931498525547461  1.0000
  H   H11       1.0  0.37742716376151797  0.5798705011151326  0.35052086031105467  1.0000
  H   H12       1.0  0.6225728359424062  0.0798705011580348  0.6494791399283124  1.0000
  H   H13       1.0  0.38357644049345874  0.5814916021052043  0.12785922375624945  1.0000
  H   H14       1.0  0.6164235602591494  0.08149160214810662  0.8721407769474155  1.0000
  H   H15       1.0  0.34093302730962277  0.5747271447909101  0.5509355436650627  1.0000
  H   H16       1.0  0.6590669723943015  0.07472714483381238  0.4490644565743045  1.0000
  H   H17       1.0  0.1914500912658145  0.4696322609018748  0.7985374372587766  1.0000
  H   H18       1.0  0.8085499094867937  0.9696322608589726  0.20146256344488844  1.0000
  H   H19       1.0  0.08166852713904549  0.3414139792321994  0.6702264738489391  1.0000
  H   H20       1.0  0.9183314736172428  0.8414139791892972  0.32977352593992443  1.0000
  H   H21       1.0  0.22914121998362866  0.22324554112075762  0.6627012409922918  1.0000
  H   H22       1.0  0.7708587797239758  0.7232455410778554  0.3372987583322739  1.0000
  H   H23       1.0  0.48890025123966735  0.23241280849809864  0.7873540877173362  1.0000
  H   H24       1.0  0.511099748464257  0.7324128084551964  0.21264591252203102  1.0000
  H   H25       1.0  0.7026863815079666  0.3138514632480135  0.936864810200535  1.0000
  H   H26       1.0  0.2973136181959578  0.8138514632051113  0.06313519003883217  1.0000
  H   H27       1.0  0.9109563066936169  0.3990280750038016  0.08675929261746292  1.0000
  H   H28       1.0  0.08904369301398743  0.8990280755813719  0.9132407067071028  1.0000
  H   H29       1.0  0.007332629009446233  0.5311931051491174  0.21441732038113728  1.0000
  H   H30       1.0  0.9926673717431619  0.03119310519201969  0.7855826803225276  1.0000
  H   H31       1.0  0.8457750441831388  0.6413639670153571  0.21410670154872044  1.0000
  H   H32       1.0  0.15422495552078555  0.14136396705825938  0.7858932986906467  1.0000
  H   H33       1.0  0.5878242524131726  0.624628186314083  0.08367562442797344  1.0000
  H   H34       1.0  0.4121757472907517  0.12462818635698526  0.9163243758113938  1.0000
  H   H35       1.0  0.2714577840055254  0.4619521940725852  0.1616291920138722  1.0000
  H   H36       1.0  0.7285422167507629  0.961952194029683  0.8383708077749914  1.0000
  H   H37       1.0  0.1696743532963633  0.33450826081091245  0.02736254993442171  1.0000
  H   H38       1.0  0.830325647459925  0.8345082607680102  0.9726374498544418  1.0000
  H   H39       1.0  0.3219889714276663  0.21492948938399928  0.03723844815469368  1.0000
  H   H40       1.0  0.678011028276258  0.7149294893410971  0.9627615520846735  1.0000
  H   H41       1.0  0.5807220661155805  0.22432316034231373  0.1763718701227156  1.0000
  H   H42       1.0  0.4192779335920238  0.7243231602994115  0.8236281292018502  1.0000
  H   H43       1.0  0.7899390786380405  0.30987152880204144  0.32640192783350114  1.0000
  H   H44       1.0  0.21006092106956392  0.8098715287591391  0.6735980714910648  1.0000
  H   H45       1.0  0.9934839067880296  0.4034041525834029  0.4659970806346114  1.0000
  H   H46       1.0  0.006516092915894719  0.9034041525405007  0.5340029196047559  1.0000
  H   H47       1.0  0.0808298696914072  0.5404433731294551  0.5777026097653595  1.0000
  H   H48       1.0  0.9191701300125172  0.0404433731723573  0.4222973904740077  1.0000
  H   H49       1.0  0.9121446377719011  0.6492767705881737  0.5674754826419584  1.0000
  H   H50       1.0  0.08785536193570344  0.14927677063107597  0.4325245166826074  1.0000
  H   H51       1.0  0.6544552302956091  0.624442756873949  0.4402897289809359  1.0000
  H   H52       1.0  0.34554476940831524  0.12444275691685121  0.5597102712584314  1.0000
  H   H53       1.0  0.17591890363188217  0.4684927228706093  0.43157708636563813  1.0000
  H   H54       1.0  0.8240810960720422  0.968492722827707  0.5684229138737291  1.0000
  H   H55       1.0  0.06851689263794111  0.337704441727104  0.3098871717902718  1.0000
  H   H56       1.0  0.9314831070659831  0.8377044416842018  0.6901128284490953  1.0000
  H   H57       1.0  0.21834398739175215  0.2150097506010182  0.3266703150428416  1.0000
  H   H58       1.0  0.781656013360856  0.715009750558116  0.6733296856608234  1.0000
  H   H59       1.0  0.4767649024990329  0.22355357095819522  0.4625801044879325  1.0000
  H   H60       1.0  0.5232350972048914  0.723553570915293  0.5374198957514347  1.0000
  H   H61       1.0  0.6889586410936549  0.3070365112632217  0.6118372922288844  1.0000
  H   H62       1.0  0.31104135861394955  0.8070365112203194  0.3881627070956813  1.0000
  H   H63       1.0  0.8944699193193415  0.3946137502598891  0.7591408718410222  1.0000
  H   H64       1.0  0.10553008143326668  0.8946137502169869  0.24085912886264285  1.0000
  H   H65       1.0  0.9866289356404359  0.527965074139833  0.8844937954895923  1.0000
  H   H66       1.0  0.013371064063488525  0.027965073562262827  0.11550620474977497  1.0000
  H   H67       1.0  0.8223541480106995  0.6396810905447176  0.8722057858045176  1.0000
  H   H68       1.0  0.1776458516932248  0.13968108996714734  0.12779421443484965  1.0000
  H   H69       1.0  0.5652591307930186  0.6238968906297113  0.7283021429750458  1.0000
  H   H70       1.0  0.43474086891090563  0.12389689067261364  0.2716978572643213  1.0000
  C   C1        1.0  0.23377011458604657  0.6462326017055512  0.9485904933353004  1.0000
  C   C2        1.0  0.7662298861702417  0.14623260174845348  0.05140950645356332  1.0000
  C   C3        1.0  0.11505403977387231  0.6997097909406461  0.8954188810773477  1.0000
  C   C4        1.0  0.884945959933732  0.19970979098354835  0.10458111824721812  1.0000
  C   C5        1.0  0.058102243287758044  0.7274429238255675  0.9786938994957042  1.0000
  C   C6        1.0  0.9418977564198465  0.2274429238684698  0.021306099828861554  1.0000
  C   C7        1.0  0.11353243286810219  0.7027767324040504  0.1180419338690955  1.0000
  C   C8        1.0  0.8864675668358221  0.20277673244695263  0.8819580663702716  1.0000
  C   C9        1.0  0.055344726500978776  0.7287658989598496  0.2055788216870619  1.0000
  C   C10       1.0  0.9446552732066257  0.22876589900275182  0.7944211776375039  1.0000
  C   C11       1.0  0.10944569441099898  0.7023871060928274  0.33969955031152926  1.0000
  C   C12       1.0  0.8905543063416091  0.20238710613572963  0.6603004503921357  1.0000
  C   C13       1.0  0.2264413729645081  0.647479426252962  0.39400642531627006  1.0000
  C   C14       1.0  0.7735586267430963  0.1474794256753918  0.6059935740082957  1.0000
  C   C15       1.0  0.2874165327352022  0.6217368720666508  0.311183587913893  1.0000
  C   C16       1.0  0.7125834680210862  0.1217368721095531  0.6888164118749706  1.0000
  C   C17       1.0  0.23282572292409764  0.648281184032553  0.1724502919131075  1.0000
  C   C18       1.0  0.7671742778321906  0.14828118407545526  0.827549707875756  1.0000
  C   C19       1.0  0.2921495923530869  0.6220579827048089  0.0854968375845804  1.0000
  C   C20       1.0  0.7078504073508374  0.12205798274771117  0.9145031626547867  1.0000
  C   C21       1.0  0.40369694826865654  0.42472296697646406  0.8683678607076906  1.0000
  C   C22       1.0  0.5963030514352677  0.9247229669335618  0.13163213953167668  1.0000
  C   C23       1.0  0.255171843364246  0.41753186968591616  0.7959882469479049  1.0000
  C   C24       1.0  0.7448281573920423  0.9175318696430139  0.20401175284095865  1.0000
  C   C25       1.0  0.1954867938080992  0.3461241371861062  0.725215074527807  1.0000
  C   C26       1.0  0.8045132069445089  0.846124137143204  0.2747849261758579  1.0000
  C   C27       1.0  0.2792630823763234  0.27860523639969165  0.7214906710919706  1.0000
  C   C28       1.0  0.7207369183799649  0.7786052363567894  0.278509328696893  1.0000
  C   C29       1.0  0.42283428588965544  0.28342200889805297  0.7899541240196153  1.0000
  C   C30       1.0  0.5771657148666328  0.7834220088551508  0.21004587576924832  1.0000
  C   C31       1.0  0.4892752451302549  0.35601297123940895  0.8658950752562827  1.0000
  C   C32       1.0  0.5107247545736695  0.8560129711965068  0.1341049249830846  1.0000
  C   C33       1.0  0.6349813689097912  0.3643025430723467  0.9378712598660149  1.0000
  C   C34       1.0  0.36501863079781327  0.864302543649917  0.062128739458550936  1.0000
  C   C35       1.0  0.694393735541505  0.43663892059338183  0.01214147330931553  1.0000
  C   C36       1.0  0.30560626416609943  0.9366389205504796  0.9878585260152503  1.0000
  C   C37       1.0  0.8419184772928077  0.4486253356850465  0.08779232472399107  1.0000
  C   C38       1.0  0.1580815224111168  0.9486253356421442  0.9122076755153761  1.0000
  C   C39       1.0  0.8945799040207707  0.5211811544654118  0.15805315014819504  1.0000
  C   C40       1.0  0.10542009673551767  0.021181154508314027  0.8419468496406687  1.0000
  C   C41       1.0  0.8018106135083015  0.5847496006940921  0.15667382925390608  1.0000
  C   C42       1.0  0.19818938619562282  0.08474960073699427  0.8433261709854611  1.0000
  C   C43       1.0  0.6590576822611448  0.5759519146441928  0.08456304537409952  1.0000
  C   C44       1.0  0.3409423174427796  0.07595191406662259  0.9154369548652677  1.0000
  C   C45       1.0  0.6008139849359653  0.5021121683033497  0.009264863932242778  1.0000
  C   C46       1.0  0.39918601581664287  0.0021121683462518893  0.9907351367714223  1.0000
  C   C47       1.0  0.4854459918784063  0.4184807582421145  0.24266989535300504  1.0000
  C   C48       1.0  0.5145540078291981  0.9184807581992123  0.7573301039715608  1.0000
  C   C49       1.0  0.3377087571494655  0.4101840466324056  0.16346590717336676  1.0000
  C   C50       1.0  0.6622912425544588  0.9101840465895034  0.8365340930660005  1.0000
  C   C51       1.0  0.2825072285101437  0.33888181989273725  0.09063185732950223  1.0000
  C   C52       1.0  0.7174927722461445  0.8388818198498349  0.9093681424593613  1.0000
  C   C53       1.0  0.36935994851667525  0.2709346330165925  0.09552309667459619  1.0000
  C   C54       1.0  0.6306400511909291  0.7709346329736901  0.9044769026499696  1.0000
  C   C55       1.0  0.5123056131203371  0.2758008615145281  0.17236890764047094  1.0000
  C   C56       1.0  0.4876943876322711  0.7758008614716259  0.8276310930631942  1.0000
  C   C57       1.0  0.5744746870142917  0.3497864840366339  0.2464650951105551  1.0000
  C   C58       1.0  0.4255253126933128  0.8497864839937317  0.7535349042140107  1.0000
  C   C59       1.0  0.7195410083729787  0.3603951095941472  0.321705242778684  1.0000
  C   C60       1.0  0.2804589913309456  0.8603951095512449  0.6782947574606832  1.0000
  C   C61       1.0  0.7741516898311538  0.4355947249831154  0.38849094916274074  1.0000
  C   C62       1.0  0.22584830987277063  0.9355947249402131  0.6115090510766266  1.0000
  C   C63       1.0  0.9205296418452726  0.45193862395571943  0.4618678016648442  1.0000
  C   C64       1.0  0.07947035786233186  0.9519386239128171  0.5381321976597216  1.0000
  C   C65       1.0  0.9688274352732172  0.5273593651867877  0.5237338613937154  1.0000
  C   C66       1.0  0.031172564430707036  0.027359365229689996  0.47626613884565183  1.0000
  C   C67       1.0  0.8719068394188545  0.5900597449834061  0.5164182132810891  1.0000
  C   C68       1.0  0.12809316028506978  0.09005974440583582  0.4835817869582781  1.0000
  C   C69       1.0  0.7299009059355774  0.5770056599463238  0.4468873133691397  1.0000
  C   C70       1.0  0.2700990948207108  0.07700565998922605  0.5531126864197238  1.0000
  C   C71       1.0  0.6760771326460933  0.4999796918929871  0.3794678563886783  1.0000
  C   C72       1.0  0.32392286706151124  0.999979691850085  0.6205321429358875  1.0000
  C   C73       1.0  0.38787574229643185  0.4210242132829863  0.5189697316282788  1.0000
  C   C74       1.0  0.6121242574074924  0.9210242132400841  0.4810302686110885  1.0000
  C   C75       1.0  0.24020803180554598  0.41465369642503447  0.43815479594665696  1.0000
  C   C76       1.0  0.7597919679020584  0.9146536963821322  0.5618452033779088  1.0000
  C   C77       1.0  0.18192567153344238  0.34183751870749496  0.3715531321366945  1.0000
  C   C78       1.0  0.818074328174162  0.8418375186645928  0.6284468671878713  1.0000
  C   C79       1.0  0.2669166751531142  0.27198325880033125  0.3807950899557669  1.0000
  C   C80       1.0  0.7330833245544903  0.771983258757429  0.6192049093687989  1.0000
  C   C81       1.0  0.4099429234899731  0.27627845593138345  0.4561578303635162  1.0000
  C   C82       1.0  0.5900570762139513  0.7762784558884812  0.5438421698758511  1.0000
  C   C83       1.0  0.4747482062043732  0.35053692315828033  0.52718381843542  1.0000
  C   C84       1.0  0.5252517945519152  0.8505369231153781  0.4728161813534436  1.0000
  C   C85       1.0  0.6199536979752451  0.3588244058603944  0.6044022290827842  1.0000
  C   C86       1.0  0.3800463017286792  0.8588244058174922  0.39559777115658307  1.0000
  C   C87       1.0  0.6772472807101547  0.43308824265609097  0.6729894819344004  1.0000
  C   C88       1.0  0.3227527200424535  0.9330882426131888  0.32701051876926446  1.0000
  C   C89       1.0  0.8242079594972772  0.4451923824723497  0.7535453462463555  1.0000
  C   C90       1.0  0.17579204125901096  0.9451923824294475  0.2464546535425081  1.0000
  C   C91       1.0  0.874402176291655  0.5183700170507419  0.8224453176616626  1.0000
  C   C92       1.0  0.12559782341226922  0.018370017093644175  0.17755468257770463  1.0000
  C   C93       1.0  0.7800527412816154  0.5829142741363159  0.814073920796823  1.0000
  C   C94       1.0  0.21994725842598914  0.08291427417921818  0.1859260785277428  1.0000
  C   C95       1.0  0.6379966218246802  0.5745828675672159  0.7351880491905903  1.0000
  C   C96       1.0  0.3620033778829242  0.07458286761011808  0.2648119501339755  1.0000
  C   C97       1.0  0.5821916047660531  0.49969585986160664  0.6618594094178262  1.0000
  C   C98       1.0  0.4178083949415513  0.9996958598187045  0.33814058990673956  1.0000
  N   N1        1.0  0.4602582876386026  0.49532908502582484  0.9375336634052217  1.0000
  N   N2        1.0  0.5397417120690017  0.9953290849829225  0.062466335919344154  1.0000
  N   N3        1.0  0.5363100103469709  0.4905819698698826  0.3090878456473391  1.0000
  N   N4        1.0  0.4636899904093174  0.9905819698269803  0.6909121541415245  1.0000
  N   N5        1.0  0.4422749223185252  0.49274710795133536  0.5854311397895537  1.0000
  N   N6        1.0  0.557725077385399  0.992747107908433  0.41456886044981345  1.0000
  O   O1        1.0  0.28346950190837705  0.6221323506742591  0.8601362962892597  1.0000
  O   O2        1.0  0.7165304977955472  0.12213235071716141  0.13986370395010758  1.0000
  O   O3        1.0  0.2718673681724998  0.623816892493022  0.5261172259539567  1.0000
  O   O4        1.0  0.7281326315351047  0.12381689253592416  0.473882773370609  1.0000
