data_image0
_chemical_formula_structural       H36C76N4F20I4
_chemical_formula_sum              "H36 C76 N4 F20 I4"
_cell_length_a       17.028201998347505
_cell_length_b       7.108175551369741
_cell_length_c       14.840649826888411
_cell_angle_alpha    90.0
_cell_angle_beta     116.35103267281934
_cell_angle_gamma    90.0

_space_group_name_H-M_alt    "P 1"
_space_group_IT_number       1

loop_
  _space_group_symop_operation_xyz
  'x, y, z'

loop_
  _atom_site_type_symbol
  _atom_site_label
  _atom_site_symmetry_multiplicity
  _atom_site_fract_x
  _atom_site_fract_y
  _atom_site_fract_z
  _atom_site_occupancy
  H   H1        1.0  0.9725111511980693  0.3320687921874906  0.7554522420082294  1.0000
  H   H2        1.0  0.027488848605030623  0.8320687913877254  0.7445477585940945  1.0000
  H   H3        1.0  0.027488848568439438  0.6679312076198101  0.24454775829444106  1.0000
  H   H4        1.0  0.972511151161478  0.16793120841957507  0.25545224170857594  1.0000
  H   H5        1.0  0.8808680953409349  0.21107041450473013  0.833379735904492  1.0000
  H   H6        1.0  0.11913190475682778  0.711070413704965  0.6666202639444141  1.0000
  H   H7        1.0  0.11913190501226925  0.7889295867094012  0.16662026439671923  1.0000
  H   H8        1.0  0.8808680953043437  0.2889295861023355  0.33337973560483847  1.0000
  H   H9        1.0  0.9424723533466952  0.17938101286121083  0.019347869868379074  1.0000
  H   H10       1.0  0.0575276463832222  0.6793810134682765  0.4806521301346379  1.0000
  H   H11       1.0  0.0575276464198134  0.8206189869460897  0.9806521304342914  1.0000
  H   H12       1.0  0.942472353969982  0.3206189863390241  0.5193478701665732  1.0000
  H   H13       1.0  0.09446681332862486  0.2800459183392579  0.12952502609240088  1.0000
  H   H14       1.0  0.905533186987988  0.7800459175394928  0.37047497390915685  1.0000
  H   H15       1.0  0.9055331867325466  0.7199540814680426  0.8704749734568517  1.0000
  H   H16       1.0  0.09446681336521605  0.21995408226780774  0.6295250263920543  1.0000
  H   H17       1.0  0.265364156612026  0.5638465554255587  0.8025041152842387  1.0000
  H   H18       1.0  0.7346358434857365  0.06384655622532377  0.6974958845646674  1.0000
  H   H19       1.0  0.7346358434491453  0.43615344438174186  0.19749588426501385  1.0000
  H   H20       1.0  0.26536415686746756  0.9361534435819767  0.3025041157365439  1.0000
  H   H21       1.0  0.41794876221680394  0.6477825184146874  0.9190099156806731  1.0000
  H   H22       1.0  0.5820512372942633  0.1477825178076217  0.5809900841696921  1.0000
  H   H23       1.0  0.582051237257672  0.3522174827994439  0.08099008387003864  1.0000
  H   H24       1.0  0.4179487624722455  0.8522174819996788  0.4190099161329784  1.0000
  H   H25       1.0  0.46959007837759176  0.6255130684192527  0.10452832508699608  1.0000
  H   H26       1.0  0.5304099219390211  0.12551306921901775  0.3954716749145617  1.0000
  H   H27       1.0  0.5304099219756124  0.37448693138804795  0.8954716752142151  1.0000
  H   H28       1.0  0.4695900781221502  0.8744869319951135  0.6045283246346909  1.0000
  H   H29       1.0  0.3695967148155884  0.5210547436868367  0.174257955886756  1.0000
  H   H30       1.0  0.6304032849143291  0.021054743079771072  0.325742044116261  1.0000
  H   H31       1.0  0.6304032849509202  0.4789452561204638  0.8257420444159145  1.0000
  H   H32       1.0  0.3695967151468424  0.9789452567275294  0.6742579554329916  1.0000
  H   H33       1.0  0.11749239100160293  0.4532182198819229  0.7764587731536957  1.0000
  H   H34       1.0  0.8825076090961598  0.9532182204889885  0.7235412266952103  1.0000
  H   H35       1.0  0.8825076093516012  0.5467817799253777  0.22354122714751548  1.0000
  H   H36       1.0  0.11749239096501167  0.046781779318312004  0.2764587728540422  1.0000
  C   C1        1.0  0.3035668990712413  0.44889260499273026  0.43143786543623147  1.0000
  C   C2        1.0  0.6964331012453716  0.9488926041929652  0.06856213456532623  1.0000
  C   C3        1.0  0.69643310098993  0.551107396221401  0.568562134113021  1.0000
  C   C4        1.0  0.3035668991078326  0.05110739561433539  0.9314378657358849  1.0000
  C   C5        1.0  0.24920897843302153  0.5093807537297359  0.4732941526604215  1.0000
  C   C6        1.0  0.7507910218835914  0.009380754529501005  0.026705847341136263  1.0000
  C   C7        1.0  0.7507910219201827  0.4906192460775647  0.5267058476407898  1.0000
  C   C8        1.0  0.24920897817758006  0.9906192452777995  0.9732941522081164  1.0000
  C   C9        1.0  0.2785309946030535  0.5183454929289135  0.5769758803504531  1.0000
  C   C10       1.0  0.7214690057867418  0.01834549372867858  0.9230241202504115  1.0000
  C   C11       1.0  0.7214690051634552  0.481654506878387  0.4230241199522174  1.0000
  C   C12       1.0  0.2785309945664623  0.9816545074854527  0.07697588005079964  1.0000
  C   C13       1.0  0.364221194203746  0.4663558948486033  0.6411583771356915  1.0000
  C   C14       1.0  0.6357788053073211  0.9663558940488381  0.8588416227146739  1.0000
  C   C15       1.0  0.6357788052707298  0.5336441049586972  0.35884162241502043  1.0000
  C   C16       1.0  0.36422119445918755  0.03364410575846235  0.14115837758799663  1.0000
  C   C17       1.0  0.41973656203570814  0.40547327780116604  0.6009838103095844  1.0000
  C   C18       1.0  0.5802634383540871  0.905473277001401  0.8990161902912801  1.0000
  C   C19       1.0  0.5802634383174959  0.5945267220061344  0.39901618999162675  1.0000
  C   C20       1.0  0.419736561999117  0.09452672280589958  0.10098381000993098  1.0000
  C   C21       1.0  0.38880958974208707  0.3971744295842516  0.4970019974240933  1.0000
  C   C22       1.0  0.6111904105745259  0.8971744301913173  0.002998002577464459  1.0000
  C   C23       1.0  0.611190410611117  0.602825570223049  0.5029980028771178  1.0000
  C   C24       1.0  0.38880958948664546  0.10282556961598331  0.997001996971788  1.0000
  C   C25       1.0  0.12261406597437259  0.36328668043410817  0.006431356615042247  1.0000
  C   C26       1.0  0.8773859343422404  0.8632866810411738  0.4935686433865155  1.0000
  C   C27       1.0  0.8773859340867988  0.6367133193731923  0.9935686429342102  1.0000
  C   C28       1.0  0.1226140660109638  0.13671331876612672  0.5064313569146957  1.0000
  C   C29       1.0  0.08731897895467039  0.37591433985969785  0.8980949724731289  1.0000
  C   C30       1.0  0.9126810211430922  0.8759143390599327  0.601905027375777  1.0000
  C   C31       1.0  0.9126810208118382  0.6240856599476028  0.10190502782954153  1.0000
  C   C32       1.0  0.08731897891807923  0.12408566074736782  0.3980949721734755  1.0000
  C   C33       1.0  0.9992025072079312  0.31900300205205934  0.8369787783832762  1.0000
  C   C34       1.0  0.000797493181864081  0.8190030026591251  0.6630212222175884  1.0000
  C   C35       1.0  0.0007974931452729089  0.6809969977552411  0.16302122191793508  1.0000
  C   C36       1.0  0.99920250717134  0.1809969971481755  0.33697877808362264  1.0000
  C   C37       1.0  0.9486233053590554  0.2507553713493373  0.8802578998660159  1.0000
  C   C38       1.0  0.051376694738707145  0.7507553705495722  0.61974209998289  1.0000
  C   C39       1.0  0.051376694702116005  0.7492446284579632  0.1197420996832367  1.0000
  C   C40       1.0  0.9486233056144968  0.24924462925772833  0.3802579003183211  1.0000
  C   C41       1.0  0.9835425395044908  0.23508086820928334  0.9865171766520029  1.0000
  C   C42       1.0  0.016457460885304552  0.7350808688163489  0.5134828239488618  1.0000
  C   C43       1.0  0.016457460848713353  0.7649191315980173  0.013482823649208362  1.0000
  C   C44       1.0  0.9835425394678995  0.2649191323977823  0.48651717635234937  1.0000
  C   C45       1.0  0.06784745589263155  0.2900265159605883  0.04801398529992401  1.0000
  C   C46       1.0  0.932152543837286  0.790026516567654  0.451986014703093  1.0000
  C   C47       1.0  0.9321525438738771  0.7099734838467122  0.9519860150027464  1.0000
  C   C48       1.0  0.06784745592922277  0.20997348323964657  0.5480139855995775  1.0000
  C   C49       1.0  0.2582965358053536  0.4804529228800355  0.028469267964943635  1.0000
  C   C50       1.0  0.7417034645112595  0.9804529234871011  0.4715307320366141  1.0000
  C   C51       1.0  0.7417034645478506  0.5195470769272651  0.9715307323362676  1.0000
  C   C52       1.0  0.25829653554991205  0.01954707772703019  0.5284692675126385  1.0000
  C   C53       1.0  0.22860643836114528  0.4944331938063565  0.9210375651869533  1.0000
  C   C54       1.0  0.7713935617366173  0.9944331930065913  0.5789624346619527  1.0000
  C   C55       1.0  0.7713935617000262  0.5055668060009442  0.0789624343622993  1.0000
  C   C56       1.0  0.22860643802989133  0.005566806800709208  0.42103756564071776  1.0000
  C   C57       1.0  0.28806285440722507  0.555737242482536  0.8835414546147325  1.0000
  C   C58       1.0  0.7119371456905375  0.055737241875470335  0.6164585452341734  1.0000
  C   C59       1.0  0.711937145067251  0.44426275732476456  0.11645854493597937  1.0000
  C   C60       1.0  0.2880628546626665  0.9442627579318302  0.3835414550670377  1.0000
  C   C61       1.0  0.37287571139638187  0.6015407651511989  0.9483494245263121  1.0000
  C   C62       1.0  0.6271242887013808  0.10154076595096408  0.5516505753225939  1.0000
  C   C63       1.0  0.6271242886647895  0.39845923465610156  0.051650575022940425  1.0000
  C   C64       1.0  0.37287571165182337  0.8984592352631673  0.4483494249786173  1.0000
  C   C65       1.0  0.4020899910748269  0.5893901901723133  0.05386049829816578  1.0000
  C   C66       1.0  0.597910009241786  0.08939019097207841  0.446139501703392  1.0000
  C   C67       1.0  0.5979100092783771  0.4106098096349872  0.9461395020030454  1.0000
  C   C68       1.0  0.40208999111141813  0.910609808835222  0.5538604985978192  1.0000
  C   C69       1.0  0.34666308479640184  0.5311854417090772  0.09322473325447242  1.0000
  C   C70       1.0  0.6533369149335156  0.031185441102011612  0.40677526674854453  1.0000
  C   C71       1.0  0.6533369146780741  0.4688145580982233  0.9067752662962393  1.0000
  C   C72       1.0  0.34666308483299296  0.9688145587052889  0.5932247335541259  1.0000
  C   C73       1.0  0.1421690520174361  0.44287028468133177  0.8578854791935702  1.0000
  C   C74       1.0  0.8578309474936311  0.9428702852883974  0.6421145206567952  1.0000
  C   C75       1.0  0.8578309474570398  0.5571297151259688  0.14211452035714173  1.0000
  C   C76       1.0  0.14216905227287763  0.057129715925733855  0.3578854796458753  1.0000
  N   N1        1.0  0.20531800166339192  0.41761067077584785  0.06803395585992954  1.0000
  N   N2        1.0  0.794681998653221  0.9176106713829135  0.43196604414162815  1.0000
  N   N3        1.0  0.7946819986898122  0.5823893290314527  0.9319660444412816  1.0000
  N   N4        1.0  0.20531800169998313  0.08238932842438704  0.568033956159583  1.0000
  F   F1        1.0  0.16530956979110073  0.5621702771859611  0.4135251004591482  1.0000
  F   F2        1.0  0.8346904305255122  0.062170277985726274  0.08647489954240956  1.0000
  F   F3        1.0  0.8346904305621035  0.4378297226213394  0.586474899842063  1.0000
  F   F4        1.0  0.16530956982769196  0.937829723228405  0.9135251007588017  1.0000
  F   F5        1.0  0.22479834633214343  0.5772485162116344  0.6162800956039176  1.0000
  F   F6        1.0  0.7752016537656192  0.0772485156045688  0.8837199042449884  1.0000
  F   F7        1.0  0.7752016540210607  0.42275148359566606  0.3837199046972935  1.0000
  F   F8        1.0  0.22479834629555223  0.9227514842027317  0.11628009530426418  1.0000
  F   F9        1.0  0.3932941495859797  0.47534762128221447  0.7416353693908603  1.0000
  F   F10       1.0  0.6067058505117829  0.9753476218892801  0.7583646304580457  1.0000
  F   F11       1.0  0.6067058507672245  0.5246523785250861  0.2583646309103509  1.0000
  F   F12       1.0  0.39329414896269305  0.024652377918020413  0.24163536909266614  1.0000
  F   F13       1.0  0.5025938489390264  0.3531294622452457  0.663339842136529  1.0000
  F   F14       1.0  0.4974061511587364  0.8531294628523114  0.836660157712377  1.0000
  F   F15       1.0  0.4974061514141779  0.6468705375620548  0.33666015816468225  1.0000
  F   F16       1.0  0.5025938489024351  0.14687053695498914  0.16333984183687553  1.0000
  F   F17       1.0  0.4445067535987508  0.33584166467863663  0.46065971885662854  1.0000
  F   F18       1.0  0.5554932467178622  0.8358416638788715  0.03934028114492922  1.0000
  F   F19       1.0  0.5554932467544533  0.6641583351286638  0.5393402814445827  1.0000
  F   F20       1.0  0.44450675363534203  0.164158335928429  0.960659719156282  1.0000
  I   I1        1.0  0.26015958604430584  0.4360935584100289  0.2736932078396868  1.0000
  I   I2        1.0  0.7398404142723071  0.9360935590170947  0.22630679216187094  1.0000
  I   I3        1.0  0.7398404143088982  0.5639064413972715  0.7263067924615243  1.0000
  I   I4        1.0  0.2601595857888643  0.06390644079020597  0.7736932073873816  1.0000
