data_image0
_chemical_formula_structural       H112C96N24S8Cl8Br8
_chemical_formula_sum              "H112 C96 N24 S8 Cl8 Br8"
_cell_length_a       21.639045194026416
_cell_length_b       9.276969438441927
_cell_length_c       14.15913468542395
_cell_angle_alpha    90.0
_cell_angle_beta     104.7122354192558
_cell_angle_gamma    90.0

_space_group_name_H-M_alt    "P 1"
_space_group_IT_number       1

loop_
  _space_group_symop_operation_xyz
  'x, y, z'

loop_
  _atom_site_type_symbol
  _atom_site_label
  _atom_site_symmetry_multiplicity
  _atom_site_fract_x
  _atom_site_fract_y
  _atom_site_fract_z
  _atom_site_occupancy
  H   H1        1.0  0.33817266927685824  0.3625363220518335  0.3431228477276403  1.0000
  H   H2        1.0  0.6618273307962681  0.8625363221358088  0.1568771520579096  1.0000
  H   H3        1.0  0.6618273309538653  0.637463678116117  0.6568771524606993  1.0000
  H   H4        1.0  0.3381726693180146  0.13746367803214174  0.8431228474002724  1.0000
  H   H5        1.0  0.43205807253233935  0.4919452942346317  0.38464944348442354  1.0000
  H   H6        1.0  0.567941927540787  0.9919452943186069  0.11535055630112633  1.0000
  H   H7        1.0  0.5679419272349973  0.5080547059333189  0.6153505566961819  1.0000
  H   H8        1.0  0.4320580725734957  0.0080547058493436  0.8846494431570558  1.0000
  H   H9        1.0  0.5253838333076644  0.5199469861366833  0.36006439203775265  1.0000
  H   H10       1.0  0.4746161667654621  0.019946986052708053  0.13993560774779726  1.0000
  H   H11       1.0  0.4746161663432315  0.4800530140312672  0.6399356074126953  1.0000
  H   H12       1.0  0.5253838334652614  0.9800530141152424  0.8600643924405423  1.0000
  H   H13       1.0  0.17681929283214406  0.8542197602982441  0.15103797899262456  1.0000
  H   H14       1.0  0.8231807073574231  0.3542197602142688  0.3489620215230828  1.0000
  H   H15       1.0  0.8231807069351925  0.14578023986970642  0.8489620211879809  1.0000
  H   H16       1.0  0.17681929287330037  0.6457802399536817  0.6510379786652567  1.0000
  H   H17       1.0  0.08176362619804438  0.989710376963583  0.10611381457346843  1.0000
  H   H18       1.0  0.9182363739915228  0.48971037687960783  0.39388618594223895  1.0000
  H   H19       1.0  0.9182363740326791  0.010289623204367479  0.8938861856148712  1.0000
  H   H20       1.0  0.08176362623920068  0.5102896232883427  0.6061138142461007  1.0000
  H   H21       1.0  0.9906767418614791  0.012227896270729973  0.14471432108814072  1.0000
  H   H22       1.0  0.009323258211647263  0.5122278963547052  0.3552856786974091  1.0000
  H   H23       1.0  0.009323258369244398  0.9877721028192823  0.8552856791001989  1.0000
  H   H24       1.0  0.9906767419026354  0.4877721038132453  0.6447143207607731  1.0000
  H   H25       1.0  0.35789606313799144  0.8904803874601782  0.45078735747874815  1.0000
  H   H26       1.0  0.6421039369351349  0.390480387376203  0.049212642306801765  1.0000
  H   H27       1.0  0.6421039366293452  0.10951961162983409  0.5492126427018573  1.0000
  H   H28       1.0  0.35789606329558854  0.6095196117138094  0.9507873578815379  1.0000
  H   H29       1.0  0.2548394553029361  0.7745638937026429  0.4386348114328189  1.0000
  H   H30       1.0  0.7451605443068035  0.2745638936186676  0.061365188344996845  1.0000
  H   H31       1.0  0.7451605444644005  0.22543610646530765  0.5613651887477865  1.0000
  H   H32       1.0  0.2548394553440924  0.7254361065492829  0.9386348111054511  1.0000
  H   H33       1.0  0.15754272583683782  0.1303886218475195  0.2662167230329523  1.0000
  H   H34       1.0  0.8424572742362887  0.6303886219314948  0.23378327675259758  1.0000
  H   H35       1.0  0.8424572743938857  0.869611378320431  0.7337832771553874  1.0000
  H   H36       1.0  0.15754272541460723  0.3696113782364558  0.7662167226978505  1.0000
  H   H37       1.0  0.2598477474984809  0.2477376717957576  0.27468539790625673  1.0000
  H   H38       1.0  0.7401522521112586  0.7477376708017947  0.22531460187155902  1.0000
  H   H39       1.0  0.7401522522688557  0.7522623283721929  0.7253146022743487  1.0000
  H   H40       1.0  0.259847747656078  0.2522623282882177  0.7746853983090464  1.0000
  H   H41       1.0  0.4385710596805421  0.978497613928172  0.4348532853342588  1.0000
  H   H42       1.0  0.5614289399291973  0.4784976138441967  0.06514671444355691  1.0000
  H   H43       1.0  0.5614289399703536  0.021502386239778567  0.5651467141161891  1.0000
  H   H44       1.0  0.4385710598381393  0.5215023863237539  0.9348532857370485  1.0000
  H   H45       1.0  0.4656945746409751  0.141551123857162  0.5030352809662547  1.0000
  H   H46       1.0  0.5343054256309047  0.6415511239411372  0.9969647188947169  1.0000
  H   H47       1.0  0.5343054255897484  0.8584488763107885  0.49696471922208485  1.0000
  H   H48       1.0  0.465694574483378  0.35844887622681326  0.003035280563465048  1.0000
  H   H49       1.0  0.6102874713344714  0.3999042741939958  0.2907728656047055  1.0000
  H   H50       1.0  0.38971252885509583  0.899904274277971  0.20922713491100184  1.0000
  H   H51       1.0  0.3897125288962522  0.6000957259739548  0.7092271345836341  1.0000
  H   H52       1.0  0.6102874709122407  0.10009572588997948  0.7907728652696037  1.0000
  H   H53       1.0  0.6002132621950836  0.24831700430683923  0.360197323917687  1.0000
  H   H54       1.0  0.39978673799448355  0.7483170043908145  0.13980267659802034  1.0000
  H   H55       1.0  0.3997867380356399  0.7516829958611113  0.6398026762706526  1.0000
  H   H56       1.0  0.6002132622362399  0.25168299577713604  0.8601973235903193  1.0000
  H   H57       1.0  0.6433405180961271  0.39378970624414955  0.5175644622751261  1.0000
  H   H58       1.0  0.35665948229219346  0.8937897063281249  0.9824355383160033  1.0000
  H   H59       1.0  0.35665948213459636  0.606210293923801  0.4824355379132135  1.0000
  H   H60       1.0  0.64334051793853  0.1062102938398257  0.017564461872336387  1.0000
  H   H61       1.0  0.7083099317656223  0.5208265772633056  0.3644370947259572  1.0000
  H   H62       1.0  0.29169006830750416  0.020826577179330376  0.1355629050595927  1.0000
  H   H63       1.0  0.29169006834866046  0.47917342182670664  0.635562904732225  1.0000
  H   H64       1.0  0.7083099319232193  0.9791734219106819  0.8644370951287469  1.0000
  H   H65       1.0  0.7401722954693483  0.5239828041102615  0.4995618969745292  1.0000
  H   H66       1.0  0.2598277046037782  0.023982804026286296  0.0004381028110206764  1.0000
  H   H67       1.0  0.25982770476137534  0.47601719497975076  0.5004381032138103  1.0000
  H   H68       1.0  0.7401722956269452  0.976017195063726  0.9995618973773189  1.0000
  H   H69       1.0  0.15303426377430568  0.391465901024886  0.027739369214826826  1.0000
  H   H70       1.0  0.8469657364152615  0.8914659011088613  0.47226063130088053  1.0000
  H   H71       1.0  0.8469657359930308  0.6085340980651264  0.9722606309657786  1.0000
  H   H72       1.0  0.15303426381546198  0.10853409798115105  0.527739368887459  1.0000
  H   H73       1.0  0.2541552164413529  0.2646375442207261  0.044066905224782384  1.0000
  H   H74       1.0  0.7458447837482144  0.7646375443047013  0.4559330952909251  1.0000
  H   H75       1.0  0.7458447837893706  0.7353624559472244  0.9559330949635573  1.0000
  H   H76       1.0  0.2541552164825092  0.2353624558632492  0.5440669048974146  1.0000
  H   H77       1.0  0.35517743921106054  0.6093635154789765  0.22341376691469708  1.0000
  H   H78       1.0  0.6448225608620659  0.10936351539500126  0.2765862328708528  1.0000
  H   H79       1.0  0.6448225605562761  0.390636484688974  0.7765862332659084  1.0000
  H   H80       1.0  0.3551774393686577  0.8906364847729492  0.7234137673174867  1.0000
  H   H81       1.0  0.2557052040092929  0.7395490365172822  0.2083520402670802  1.0000
  H   H82       1.0  0.7442947960638334  0.23954903643330688  0.29164795951846967  1.0000
  H   H83       1.0  0.7442947961049897  0.26045096365066833  0.7916479591911019  1.0000
  H   H84       1.0  0.2557052041668901  0.7604509637346436  0.7083520406698699  1.0000
  H   H85       1.0  0.07349533310078135  0.47878501265667445  0.04776635483971458  1.0000
  H   H86       1.0  0.926504666972345  0.9787850127406497  0.4522336449458353  1.0000
  H   H87       1.0  0.9265046670135014  0.5212149875112762  0.9522336446184675  1.0000
  H   H88       1.0  0.07349533325837847  0.02121498742730088  0.5477663552425043  1.0000
  H   H89       1.0  0.044693645165033095  0.6444822309346908  0.9851595187605341  1.0000
  H   H90       1.0  0.9553063552232876  0.14448223085071557  0.5148404818305953  1.0000
  H   H91       1.0  0.9553063550656904  0.3555177692332597  0.014840481427805486  1.0000
  H   H92       1.0  0.04469364500743596  0.8555177693172349  0.4851595183577444  1.0000
  H   H93       1.0  0.9148768553936137  0.7883304551694498  0.19888997800182573  1.0000
  H   H94       1.0  0.08512314467951267  0.28833045508547456  0.3011100217837241  1.0000
  H   H95       1.0  0.08512314483710978  0.21166954499850074  0.8011100221865138  1.0000
  H   H96       1.0  0.91487685543477  0.7116695440045377  0.6988899776744579  1.0000
  H   H97       1.0  0.9054273860352995  0.7776365113488628  0.06969591227739394  1.0000
  H   H98       1.0  0.09457261403782696  0.2776365112648876  0.43030408750815596  1.0000
  H   H99       1.0  0.09457261407898328  0.2223634888190877  0.9303040871807882  1.0000
  H   H100      1.0  0.9054273861928966  0.7223634889030629  0.5696959126801837  1.0000
  H   H101      1.0  0.870045773422872  0.047159643340754405  0.059080863570634835  1.0000
  H   H102      1.0  0.12995422665025416  0.5471596423467915  0.4409191362149151  1.0000
  H   H103      1.0  0.12995422622802355  0.952840356827196  0.9409191358798131  1.0000
  H   H104      1.0  0.8700457735804694  0.4528403567432209  0.5590808639734246  1.0000
  H   H105      1.0  0.8308230021971165  0.9190717579244262  0.23670756871276166  1.0000
  H   H106      1.0  0.16917699741262304  0.419071757840451  0.2632924310650541  1.0000
  H   H107      1.0  0.16917699745377932  0.08092824224352431  0.7632924307376864  1.0000
  H   H108      1.0  0.8308230023547135  0.5809282423274996  0.7367075691155514  1.0000
  H   H109      1.0  0.7952619225167814  0.07837409563808076  0.16361663917460087  1.0000
  H   H110      1.0  0.20473807709295813  0.578374095722056  0.33638336060321494  1.0000
  H   H111      1.0  0.20473807725055523  0.9216259045298698  0.8363833610060046  1.0000
  H   H112      1.0  0.7952619226743786  0.42162590444589454  0.6636166395773906  1.0000
  C   C1        1.0  0.31465737470357696  0.9455916749762732  0.4110436439423871  1.0000
  C   C2        1.0  0.6853426254859902  0.44559167597023625  0.0889563565733203  1.0000
  C   C3        1.0  0.6853426250637596  0.05440832411373903  0.5889563562382184  1.0000
  C   C4        1.0  0.31465737474473326  0.5544083241977144  0.9110436436150193  1.0000
  C   C5        1.0  0.25667299006290345  0.8783566825427144  0.40347000586703585  1.0000
  C   C6        1.0  0.7433270101266638  0.37835668353667734  0.0965299946486715  1.0000
  C   C7        1.0  0.7433270101678201  0.12164331654729792  0.5965299943213037  1.0000
  C   C8        1.0  0.2566729896406728  0.6216433166312731  0.903470005531934  1.0000
  C   C9        1.0  0.19971340823736727  0.9482332143456339  0.3558673261345369  1.0000
  C   C10       1.0  0.8002865919522  0.4482332142616587  0.14413267438117047  1.0000
  C   C11       1.0  0.8002865919933562  0.0517667858223166  0.6441326740538026  1.0000
  C   C12       1.0  0.19971340781513663  0.5517667859062919  0.855867325799435  1.0000
  C   C13       1.0  0.20163512701741926  0.08064608328877415  0.3084092426330433  1.0000
  C   C14       1.0  0.7983648730557071  0.5806460833727495  0.1915907571525065  1.0000
  C   C15       1.0  0.7983648727499174  0.9193539168791764  0.691590757547562  1.0000
  C   C16       1.0  0.2016351271750164  0.4193539167952011  0.8084092430358332  1.0000
  C   C17       1.0  0.25985691807099565  0.14728709403072948  0.31501198877095415  1.0000
  C   C18       1.0  0.7401430820021309  0.6472870941147048  0.1849880110145957  1.0000
  C   C19       1.0  0.740143082043287  0.8527129061372211  0.6849880106872279  1.0000
  C   C20       1.0  0.25985691822859275  0.3527129060532458  0.815011989173744  1.0000
  C   C21       1.0  0.31834591048671557  0.08544767073557737  0.3705373590279064  1.0000
  C   C22       1.0  0.6816540897028517  0.5854476708195526  0.12946264148780104  1.0000
  C   C23       1.0  0.681654089744008  0.9145523294323732  0.6294626411604333  1.0000
  C   C24       1.0  0.3183459105278718  0.41455232934839786  0.8705373587005385  1.0000
  C   C25       1.0  0.3771284726441003  0.16134058001719367  0.3916995225145073  1.0000
  C   C26       1.0  0.6228715270820799  0.6613405801011689  0.10830047799346595  1.0000
  C   C27       1.0  0.6228715271232362  0.8386594201507569  0.6083004776660982  1.0000
  C   C28       1.0  0.37712847268525657  0.33865942006678157  0.8916995221871394  1.0000
  C   C29       1.0  0.44024924329483184  0.09624300973766639  0.43213758454469847  1.0000
  C   C30       1.0  0.5597507563149076  0.5962430098216417  0.06786241523311724  1.0000
  C   C31       1.0  0.5597507563560639  0.9037569904302841  0.5678624149057494  1.0000
  C   C32       1.0  0.44024924345242905  0.4037569903463089  0.9321375849474883  1.0000
  C   C33       1.0  0.48730770769259396  0.3215470342759902  0.3618734463043483  1.0000
  C   C34       1.0  0.5126922924969732  0.8215470343599655  0.13812655421135908  1.0000
  C   C35       1.0  0.5126922925381295  0.6784529658919604  0.6381265538839913  1.0000
  C   C36       1.0  0.4873077072703634  0.1784529658079851  0.8618734459692464  1.0000
  C   C37       1.0  0.6000045217808875  0.36680500917673703  0.3598077204687204  1.0000
  C   C38       1.0  0.3999954784086797  0.8668050092607122  0.14019228004698697  1.0000
  C   C39       1.0  0.399995478449836  0.6331949909912136  0.6401922797196191  1.0000
  C   C40       1.0  0.6000045218220439  0.13319499090723827  0.8598077201413526  1.0000
  C   C41       1.0  0.6502401828016157  0.42126420981897295  0.44565679734925906  1.0000
  C   C42       1.0  0.34975981727151073  0.9212642099029483  0.05434320243629083  1.0000
  C   C43       1.0  0.349759817312667  0.5787357903489776  0.5543432021089231  1.0000
  C   C44       1.0  0.6502401829592129  0.07873579026500233  0.9456567977520488  1.0000
  C   C45       1.0  0.7021239027805748  0.49223224246892994  0.43644252331431094  1.0000
  C   C46       1.0  0.2978760972925516  0.9922322425529051  0.06355747647123892  1.0000
  C   C47       1.0  0.2978760974501487  0.5077677576990206  0.5635574768740287  1.0000
  C   C48       1.0  0.7021239024747851  0.00776775761504532  0.9364425237093666  1.0000
  C   C49       1.0  0.19678322098863418  0.4420347956529133  0.06970902937903911  1.0000
  C   C50       1.0  0.8032167792009329  0.9420347957368886  0.43029097113666825  1.0000
  C   C51       1.0  0.8032167792420892  0.5579652045150372  0.9302909708093005  1.0000
  C   C52       1.0  0.19678322056640363  0.05796520443106191  0.5697090290439373  1.0000
  C   C53       1.0  0.2535767012510818  0.36870902644414394  0.07928824538970371  1.0000
  C   C54       1.0  0.7464232988220446  0.8687090265281192  0.4207117543958462  1.0000
  C   C55       1.0  0.7464232985162549  0.6312909737238066  0.9207117547909017  1.0000
  C   C56       1.0  0.253576701292238  0.13129097363983133  0.5792882450623359  1.0000
  C   C57       1.0  0.3112356075906931  0.43161128605296784  0.1305999627772467  1.0000
  C   C58       1.0  0.6887643920190465  0.9316112861369431  0.36940003700056906  1.0000
  C   C59       1.0  0.6887643920602027  0.5683887141149826  0.8694000366732013  1.0000
  C   C60       1.0  0.3112356077482902  0.06838871403100737  0.6305999631800363  1.0000
  C   C61       1.0  0.3108451321611428  0.5643418990155997  0.17837621286144884  1.0000
  C   C62       1.0  0.6891548680284244  0.06434189893162451  0.32162378765425853  1.0000
  C   C63       1.0  0.6891548676061938  0.4356581011523507  0.8216237873191566  1.0000
  C   C64       1.0  0.31084513220229915  0.9356581012363261  0.6783762125340811  1.0000
  C   C65       1.0  0.25389038754080967  0.6381903238213477  0.16840660193055806  1.0000
  C   C66       1.0  0.7461096125323168  0.13819032373737242  0.3315933978549918  1.0000
  C   C67       1.0  0.7461096126899138  0.3618096763466028  0.8315933982577814  1.0000
  C   C68       1.0  0.2538903872350199  0.8618096764305782  0.6684066023256137  1.0000
  C   C69       1.0  0.1947031498242592  0.5819357329807802  0.1110455915077612  1.0000
  C   C70       1.0  0.8052968502488671  0.0819357328968049  0.3889544082777887  1.0000
  C   C71       1.0  0.8052968504064643  0.4180642671871703  0.8889544086805785  1.0000
  C   C72       1.0  0.19470314940202862  0.9180642672711457  0.6110455911726592  1.0000
  C   C73       1.0  0.13650387643524067  0.660032478346547  0.09155942344725054  1.0000
  C   C74       1.0  0.8634961237543265  0.16003247826257172  0.4084405770684568  1.0000
  C   C75       1.0  0.8634961237954829  0.33996752182140355  0.908440576741089  1.0000
  C   C76       1.0  0.136503876476397  0.8399675219053788  0.5915594231198827  1.0000
  C   C77       1.0  0.07271690719334425  0.5963552695425463  0.05362692899258311  1.0000
  C   C78       1.0  0.9272830928797821  0.096355269458571  0.44637307079296684  1.0000
  C   C79       1.0  0.9272830930373793  0.40364473062540424  0.9463730711957565  1.0000
  C   C80       1.0  0.07271690735094138  0.9036447296314414  0.5536269293953728  1.0000
  C   C81       1.0  0.029446997019853018  0.8169711941266133  0.13330032721213347  1.0000
  C   C82       1.0  0.9705530030532734  0.3169711940426381  0.3666996725734164  1.0000
  C   C83       1.0  0.9705530027474836  0.18302880604133714  0.8666996729684721  1.0000
  C   C84       1.0  0.029446997177450134  0.6830288061253124  0.6333003276149232  1.0000
  C   C85       1.0  0.9167943342568815  0.8503682061633411  0.13345422538776944  1.0000
  C   C86       1.0  0.08320566581624493  0.3503682060793658  0.3665457743977804  1.0000
  C   C87       1.0  0.08320566585740125  0.14963179400460944  0.8665457740704127  1.0000
  C   C88       1.0  0.9167943344144786  0.6496317940885847  0.6334542257905592  1.0000
  C   C89       1.0  0.8702228446635072  0.972258370564908  0.11890372881508639  1.0000
  C   C90       1.0  0.12977715494623226  0.4722583704809329  0.3810962709627294  1.0000
  C   C91       1.0  0.12977715510382937  0.027741629603042377  0.881096271365519  1.0000
  C   C92       1.0  0.8702228447046636  0.5277416296870177  0.6189037284877186  1.0000
  C   C93       1.0  0.8298350083232979  0.9905738604592605  0.17520260394460907  1.0000
  C   C94       1.0  0.17016499174982838  0.4905738603752854  0.32479739584094086  1.0000
  C   C95       1.0  0.17016499144403857  0.00942613970868989  0.8247973962359963  1.0000
  C   C96       1.0  0.8298350083644543  0.5094261397926652  0.6752026036172413  1.0000
  N   N1        1.0  0.37848757341565914  0.3058775841431013  0.37370440049089276  1.0000
  N   N2        1.0  0.6215124267739082  0.8058775842270766  0.12629560002481463  1.0000
  N   N3        1.0  0.6215124268150644  0.6941224160248493  0.6262955996974467  1.0000
  N   N4        1.0  0.3784875734568154  0.19412241594087398  0.873704400163525  1.0000
  N   N5        1.0  0.43362286916929893  0.3794507369414393  0.37615798507316656  1.0000
  N   N6        1.0  0.5663771304404406  0.8794507370254145  0.12384201470464924  1.0000
  N   N7        1.0  0.5663771305980377  0.6205492632265113  0.6238420151074391  1.0000
  N   N8        1.0  0.43362286921045523  0.12054926314253596  0.8761579847457988  1.0000
  N   N9        1.0  0.5355290793049143  0.41130784954281874  0.35994546471617056  1.0000
  N   N10       1.0  0.46447092088465286  0.911307849626794  0.14005453579953686  1.0000
  N   N11       1.0  0.46447092046242233  0.5886921506251318  0.6400545354644349  1.0000
  N   N12       1.0  0.5355290793460705  0.08869215054115655  0.8599454643888027  1.0000
  N   N13       1.0  0.13643140153396274  0.8054587028212699  0.11105880852456348  1.0000
  N   N14       1.0  0.8635685986556045  0.30545870273729464  0.3889411919911439  1.0000
  N   N15       1.0  0.8635685986967607  0.19454129734668063  0.888941191663776  1.0000
  N   N16       1.0  0.13643140157511904  0.694541297430656  0.6110588081971957  1.0000
  N   N17       1.0  0.08159528500538797  0.8774232149855059  0.11501021480132083  1.0000
  N   N18       1.0  0.9184047150677385  0.3774232149015307  0.38498978498422903  1.0000
  N   N19       1.0  0.9184047152253355  0.12257678518244462  0.8849897853870188  1.0000
  N   N20       1.0  0.08159528516298509  0.6225767852664199  0.6150102152041105  1.0000
  N   N21       1.0  0.9819583660800264  0.9028388339076698  0.14321637239197024  1.0000
  N   N22       1.0  0.018041633993100017  0.4028388338236945  0.3567836273935796  1.0000
  N   N23       1.0  0.018041633570869405  0.0971611662602808  0.8567836270584777  1.0000
  N   N24       1.0  0.9819583662376233  0.597161166344256  0.64321637279476  1.0000
  S   S1        1.0  0.4931824355855123  0.13671679834842862  0.3498595844430115  1.0000
  S   S2        1.0  0.5068175640242273  0.6367167984324039  0.15014041533480424  1.0000
  S   S3        1.0  0.5068175641818243  0.863283201819522  0.650140415737594  1.0000
  S   S4        1.0  0.4931824356266686  0.3632832017355466  0.8498595841156438  1.0000
  S   S5        1.0  0.023130307220314335  0.6323224980878243  0.14133447545619035  1.0000
  S   S6        1.0  0.976869692852812  0.132322498003849  0.35866552432935955  1.0000
  S   S7        1.0  0.9768696930104093  0.3676775020801263  0.8586655247321493  1.0000
  S   S8        1.0  0.023130306914524543  0.8676775021641016  0.6413344758512459  1.0000
  Cl  Cl1       1.0  0.12739409505806087  0.8699122103991092  0.35606358046046016  1.0000
  Cl  Cl2       1.0  0.8726059051315063  0.3699122103151339  0.1439364200552472  1.0000
  Cl  Cl3       1.0  0.8726059047092757  0.13008778976884136  0.6439364197201454  1.0000
  Cl  Cl4       1.0  0.1273940950992172  0.6300877898528167  0.8560635801330924  1.0000
  Cl  Cl5       1.0  0.3825341736486041  0.34577840223420503  0.1335237924857872  1.0000
  Cl  Cl6       1.0  0.6174658264245223  0.8457784023181804  0.3664762072997627  1.0000
  Cl  Cl7       1.0  0.6174658264656786  0.6542215979337456  0.8664762069723949  1.0000
  Cl  Cl8       1.0  0.38253417380620125  0.15422159784977024  0.633523792888577  1.0000
  Br  Br1       1.0  0.45248351959003197  0.7155899945612995  0.37457910351276996  1.0000
  Br  Br2       1.0  0.5475164804830943  0.21558999447732413  0.1254208962727799  1.0000
  Br  Br3       1.0  0.5475164800608637  0.2844100045287129  0.6254208959376779  1.0000
  Br  Br4       1.0  0.4524835197476292  0.7844100046126882  0.8745791039155597  1.0000
  Br  Br5       1.0  0.05457320057571018  0.214817059948696  0.11575101294428396  1.0000
  Br  Br6       1.0  0.9454267990340292  0.7148170600326712  0.38424898683353187  1.0000
  Br  Br7       1.0  0.9454267991916263  0.7851829402192546  0.8842489872363215  1.0000
  Br  Br8       1.0  0.05457320061686647  0.2851829401352793  0.6157510126169161  1.0000
