data_image0
_chemical_formula_structural       H108C92N4O24F4Cl4
_chemical_formula_sum              "H108 C92 N4 O24 F4 Cl4"
_cell_length_a       8.402504044188206
_cell_length_b       10.000010035514157
_cell_length_c       26.25573460103105
_cell_angle_alpha    90.0
_cell_angle_beta     93.9368382335495
_cell_angle_gamma    90.0

_space_group_name_H-M_alt    "P 1"
_space_group_IT_number       1

loop_
  _space_group_symop_operation_xyz
  'x, y, z'

loop_
  _atom_site_type_symbol
  _atom_site_label
  _atom_site_symmetry_multiplicity
  _atom_site_fract_x
  _atom_site_fract_y
  _atom_site_fract_z
  _atom_site_occupancy
  H   H1        1.0  0.24081660320813641  0.3038774590433458  0.6005704086899967  1.0000
  H   H2        1.0  0.7591833975407266  0.8038774592676378  0.899429591371062  1.0000
  H   H3        1.0  0.7591833971115899  0.6961225404052391  0.3994295915158887  1.0000
  H   H4        1.0  0.24081660269202393  0.19612254018094716  0.1005704084530567  1.0000
  H   H5        1.0  0.4266940903767502  0.374255714415148  0.5849508955895953  1.0000
  H   H6        1.0  0.5733059091823512  0.87425571463944  0.9150491044730907  1.0000
  H   H7        1.0  0.573305909942976  0.6257442850334369  0.41504910461628997  1.0000
  H   H8        1.0  0.4266940898606378  0.12574428580914396  0.08495089535265547  1.0000
  H   H9        1.0  0.2567483323452649  0.4716893376354974  0.5186835017751665  1.0000
  H   H10       1.0  0.7432516671268609  0.9716893378597894  0.9813164979057531  1.0000
  H   H11       1.0  0.7432516666977241  0.5283106628130864  0.48131649805057974  1.0000
  H   H12       1.0  0.2567483331058897  0.02831066258879448  0.018683501918365694  1.0000
  H   H13       1.0  0.08959714875378401  0.3714659402148298  0.5339439460003792  1.0000
  H   H14       1.0  0.9104028508053176  0.8714659404391217  0.966056054062307  1.0000
  H   H15       1.0  0.910402850289205  0.6285340602337541  0.4660560538253671  1.0000
  H   H16       1.0  0.08959714951440882  0.1285340600094621  0.0339439461435784  1.0000
  H   H17       1.0  0.8521044138031673  0.9357884708881552  0.8382993285279583  1.0000
  H   H18       1.0  0.14789558575593428  0.4357884706638633  0.6617006715347279  1.0000
  H   H19       1.0  0.1478955853267976  0.06421152956042861  0.16170067167955446  1.0000
  H   H20       1.0  0.8521044144768163  0.5642115287847216  0.33829932828939097  1.0000
  H   H21       1.0  0.06230260296701824  0.45786275351118555  0.4437888841330049  1.0000
  H   H22       1.0  0.9376973968365956  0.9578627537354776  0.05621111583594057  1.0000
  H   H23       1.0  0.9376973961629466  0.5421372459373994  0.556211116074508  1.0000
  H   H24       1.0  0.0623026033961549  0.04213724671310641  0.9437888839881783  1.0000
  H   H25       1.0  0.0621999295261676  0.2811099438917179  0.4464916784825327  1.0000
  H   H26       1.0  0.9378000702774463  0.7811099441160098  0.053508321486412755  1.0000
  H   H27       1.0  0.9378000696037972  0.718890055556867  0.5535083217249802  1.0000
  H   H28       1.0  0.062199929955304246  0.21889005633257408  0.9464916783377061  1.0000
  H   H29       1.0  0.5100394526048622  0.16996250743388505  0.5057999777061128  1.0000
  H   H30       1.0  0.4899605481440008  0.669962507658177  0.9942000223549458  1.0000
  H   H31       1.0  0.4899605476278883  0.8300374930146989  0.49420002211800584  1.0000
  H   H32       1.0  0.5100394521757255  0.3300374927904069  0.005799977850939538  1.0000
  H   H33       1.0  0.5122797421966577  0.3490151527453494  0.5015495228195583  1.0000
  H   H34       1.0  0.48772025727546786  0.8490151529696414  0.9984504768613611  1.0000
  H   H35       1.0  0.48772025803609276  0.6509848467032355  0.4984504770045604  1.0000
  H   H36       1.0  0.5122797417675211  0.15098484647894359  0.0015495229643850258  1.0000
  H   H37       1.0  0.3221610249669494  0.15353258692215505  0.4296970976534193  1.0000
  H   H38       1.0  0.6778389748366644  0.653532587146447  0.07030290231552615  1.0000
  H   H39       1.0  0.6778389741630153  0.8464674135264288  0.5703029025540934  1.0000
  H   H40       1.0  0.3221610253960861  0.3464674133021369  0.9296970975085928  1.0000
  H   H41       1.0  0.49190225299584583  0.2473215798000785  0.4152799477887736  1.0000
  H   H42       1.0  0.508097746807768  0.7473215800243704  0.0847200521801718  1.0000
  H   H43       1.0  0.5080977460471431  0.7526784196485065  0.5847200520369726  1.0000
  H   H44       1.0  0.49190225342498256  0.25267842042421346  0.915279947643947  1.0000
  H   H45       1.0  0.6081066722231285  0.31443286745045074  0.8454938361528764  1.0000
  H   H46       1.0  0.391893327335973  0.8144328676747427  0.6545061639098098  1.0000
  H   H47       1.0  0.39189332681986055  0.6855671319981341  0.15450616367286987  1.0000
  H   H48       1.0  0.6081066729837533  0.1855671327738412  0.3454938362960756  1.0000
  H   H49       1.0  0.75449360402965  0.9139191758351173  0.7461627566725534  1.0000
  H   H50       1.0  0.24550639552945155  0.41391917661082434  0.7538372433901328  1.0000
  H   H51       1.0  0.24550639629007628  0.0860808236134676  0.2538372435333319  1.0000
  H   H52       1.0  0.754493604703299  0.5860808238377595  0.24616275643398608  1.0000
  H   H53       1.0  0.5403455637787088  0.13567724784090585  0.586299527141851  1.0000
  H   H54       1.0  0.45965443578039267  0.6356772480651979  0.9137004729208352  1.0000
  H   H55       1.0  0.4596544365410175  0.8643227526076781  0.41370047306403446  1.0000
  H   H56       1.0  0.5403455632625964  0.3643227523833861  0.08629952690491097  1.0000
  H   H57       1.0  0.35546428452539003  0.07670026602733945  0.605040473112261  1.0000
  H   H58       1.0  0.6445357161364971  0.5767002662516314  0.8949595265670311  1.0000
  H   H59       1.0  0.6445357157073605  0.9232997334212454  0.39495952671185774  1.0000
  H   H60       1.0  0.3554642840962533  0.4232997341969525  0.10504047325708764  1.0000
  H   H61       1.0  0.5171536284097432  0.29483228712064086  0.7546967798086558  1.0000
  H   H62       1.0  0.48284637114935836  0.7948322863449337  0.7453032202540304  1.0000
  H   H63       1.0  0.48284637182300727  0.705167713327943  0.24530322001546298  1.0000
  H   H64       1.0  0.5171536279806066  0.2051677131036511  0.25469677995348244  1.0000
  H   H65       1.0  0.07463586588401284  0.17925834010503902  0.3727570261733661  1.0000
  H   H66       1.0  0.9253641351093624  0.679258340329331  0.1272429737939519  1.0000
  H   H67       1.0  0.9253641343487377  0.8207416603435449  0.6272429736507527  1.0000
  H   H68       1.0  0.07463586512338803  0.3207416601192529  0.8727570260301669  1.0000
  H   H69       1.0  0.25282450460314826  0.5163835367825707  0.2497101325238283  1.0000
  H   H70       1.0  0.7471754952004658  0.01638353755827769  0.25028986744511716  1.0000
  H   H71       1.0  0.7471754944398409  0.4836164626660142  0.750289867301918  1.0000
  H   H72       1.0  0.25282450511926063  0.9836164628903062  0.7497101327607681  1.0000
  H   H73       1.0  0.3511888256288552  0.5279369261881504  0.34104743437736434  1.0000
  H   H74       1.0  0.6488111741747585  0.0279369259638584  0.15895256559158102  1.0000
  H   H75       1.0  0.648811174690871  0.4720630742604336  0.6589525658285209  1.0000
  H   H76       1.0  0.3511888248682304  0.9720630734847264  0.8410474342341652  1.0000
  H   H77       1.0  0.5657424587219312  0.2838244921675291  0.6641622022868764  1.0000
  H   H78       1.0  0.4342575408371703  0.7838244913918221  0.8358377977758097  1.0000
  H   H79       1.0  0.4342575415977951  0.7161755082810548  0.3358377979190089  1.0000
  H   H80       1.0  0.5657424593955802  0.21617550805676286  0.1641622020483091  1.0000
  H   H81       1.0  0.38261766987364365  0.2244968437058747  0.6828698895959086  1.0000
  H   H82       1.0  0.6173823296854579  0.7244968429301677  0.8171301104667776  1.0000
  H   H83       1.0  0.617382330359107  0.7755031567427092  0.3171301102282103  1.0000
  H   H84       1.0  0.38261767063426844  0.2755031565184173  0.18286988973910767  1.0000
  H   H85       1.0  0.9794123535804528  0.16580481660634155  0.28215970699274046  1.0000
  H   H86       1.0  0.020587646223161084  0.6658048168306335  0.21784029297620497  1.0000
  H   H87       1.0  0.020587646652297738  0.8341951828422434  0.7178402928313784  1.0000
  H   H88       1.0  0.9794123529068038  0.33419518361795036  0.7821597072313078  1.0000
  H   H89       1.0  0.24250673182774748  0.17431394306699566  0.5221223315578772  1.0000
  H   H90       1.0  0.7574932689211156  0.6743139432912876  0.9778776685031815  1.0000
  H   H91       1.0  0.7574932684919788  0.8256860573815883  0.4778776686480082  1.0000
  H   H92       1.0  0.242506731311635  0.32568605715729626  0.022122331320937303  1.0000
  H   H93       1.0  0.30705702877305224  0.5636159203824452  0.4253993104710593  1.0000
  H   H94       1.0  0.6929429710305616  0.06361592015815327  0.07460068949788619  1.0000
  H   H95       1.0  0.6929429702699369  0.4363840800661387  0.5746006893546871  1.0000
  H   H96       1.0  0.3070570292891647  0.9363840802904306  0.9253993107079992  1.0000
  H   H97       1.0  0.7992613977880311  0.39679943979136045  0.09627501310519077  1.0000
  H   H98       1.0  0.2007386020155828  0.8967994400156525  0.4037249868637547  1.0000
  H   H99       1.0  0.20073860244471944  0.6032005596572244  0.903724986718928  1.0000
  H   H100      1.0  0.7992613982171678  0.10320056043293149  0.5962750129603641  1.0000
  H   H101      1.0  0.21388177267640335  0.7001917713215566  0.027812411968695872  1.0000
  H   H102      1.0  0.7861182271272105  0.20019177109726471  0.47218758800024957  1.0000
  H   H103      1.0  0.7861182275563471  0.29980822912702726  0.9721875878554229  1.0000
  H   H104      1.0  0.21388177319251578  0.7998082293513192  0.5278124122056358  1.0000
  H   H105      1.0  0.04974107926040603  0.46367300068030376  0.07072901393506155  1.0000
  H   H106      1.0  0.9502589205432079  0.9636730009045957  0.42927098603388386  1.0000
  H   H107      1.0  0.9502589210593203  0.5363269997682801  0.9292709862708238  1.0000
  H   H108      1.0  0.049741079689542674  0.03632699954398818  0.5707290137902349  1.0000
  C   C1        1.0  0.2794144381456273  0.3668642288328838  0.42002093755281594  1.0000
  C   C2        1.0  0.7205855629347239  0.8668642290571758  0.07997906279626858  1.0000
  C   C3        1.0  0.720585562174099  0.6331357706157011  0.5799790626530694  1.0000
  C   C4        1.0  0.27941443738500243  0.13313577039140914  0.9200209374096168  1.0000
  C   C5        1.0  0.351510512011933  0.28429191469844656  0.5821138694001988  1.0000
  C   C6        1.0  0.6484894875471685  0.7842919139227396  0.9178861306624874  1.0000
  C   C7        1.0  0.6484894882208175  0.7157080857501373  0.41788613042392  1.0000
  C   C8        1.0  0.35151051277255785  0.2157080855258454  0.082113869543398  1.0000
  C   C9        1.0  0.22072610273685087  0.3557028460339053  0.3637582421611485  1.0000
  C   C10       1.0  0.779273897066763  0.8557028462581973  0.1362417578077969  1.0000
  C   C11       1.0  0.7792738974958997  0.6442971534146796  0.6362417576629703  1.0000
  C   C12       1.0  0.22072610206320187  0.14429715419038663  0.8637582423997159  1.0000
  C   C13       1.0  0.19093796404677071  0.3787934428613042  0.5099932132498478  1.0000
  C   C14       1.0  0.8090620366151166  0.878793443085596  0.9900067864294444  1.0000
  C   C15       1.0  0.8090620361859798  0.6212065565872807  0.49000678657427105  1.0000
  C   C16       1.0  0.1909379636176341  0.12120655636298877  0.009993213394674433  1.0000
  C   C17       1.0  0.7754052813999189  0.011433281526114138  0.8196480478873776  1.0000
  C   C18       1.0  0.2245947181591825  0.5114332817504061  0.6803519521753085  1.0000
  C   C19       1.0  0.2245947188328315  0.9885667189224697  0.1803519519367412  1.0000
  C   C20       1.0  0.7754052809707824  0.4885667186981778  0.3196480480322042  1.0000
  C   C21       1.0  0.11027858833630147  0.3405140882766046  0.2607434718021763  1.0000
  C   C22       1.0  0.8897214114673123  0.8405140885008966  0.23925652816676912  1.0000
  C   C23       1.0  0.889721411896449  0.6594859111719803  0.7392565280219425  1.0000
  C   C24       1.0  0.11027858757567664  0.1594859119476873  0.760743471658977  1.0000
  C   C25       1.0  0.1366342543599208  0.37018920249610177  0.4538672536896718  1.0000
  C   C26       1.0  0.8633657454436932  0.8701892017203947  0.0461327462792737  1.0000
  C   C27       1.0  0.8633657458728297  0.6298107979524821  0.5461327461344471  1.0000
  C   C28       1.0  0.1366342548760332  0.12981079772819018  0.9538672539266115  1.0000
  C   C29       1.0  0.5723292087754157  0.08179119291833255  0.6898435883504672  1.0000
  C   C30       1.0  0.4276707907836858  0.5817911921426255  0.810156411712219  1.0000
  C   C31       1.0  0.4276707914573349  0.9182088075302512  0.31015641147365164  1.0000
  C   C32       1.0  0.5723292095360404  0.4182088073059594  0.18984358849366634  1.0000
  C   C33       1.0  0.44097530391065554  0.2586107424708233  0.49366454207183325  1.0000
  C   C34       1.0  0.5590246958929583  0.7586107416951162  0.006335457897112198  1.0000
  C   C35       1.0  0.5590246964090707  0.7413892579777606  0.5063354581340521  1.0000
  C   C36       1.0  0.44097530315003075  0.24138925775346867  0.9936645419286341  1.0000
  C   C37       1.0  0.3857957543734926  0.24810661501225528  0.4373843516306015  1.0000
  C   C38       1.0  0.6142042455170971  0.7481066142365482  0.06261564872011045  1.0000
  C   C39       1.0  0.6142042447564722  0.7518933854363287  0.5626156485769113  1.0000
  C   C40       1.0  0.38579575480262923  0.2518933852120367  0.9373843514857749  1.0000
  C   C41       1.0  0.62870216548614  0.1013177323224463  0.7442655953349676  1.0000
  C   C42       1.0  0.3712978340729616  0.6013177325467383  0.7557344047277185  1.0000
  C   C43       1.0  0.37129783364382485  0.8986822671261386  0.2557344048725452  1.0000
  C   C44       1.0  0.6287021662467649  0.39868226690184666  0.24426559547816684  1.0000
  C   C45       1.0  0.640752834801589  0.22732179787088794  0.8236847799359364  1.0000
  C   C46       1.0  0.35924716475751245  0.7273217980951799  0.6763152201267497  1.0000
  C   C47       1.0  0.3592471655181373  0.772678201577697  0.17631522026994895  1.0000
  C   C48       1.0  0.640752835475238  0.272678202353404  0.32368477969736903  1.0000
  C   C49       1.0  0.7224509548530055  0.0004084195901299421  0.7685356635276213  1.0000
  C   C50       1.0  0.2775490458958574  0.5004084198144219  0.7314643365334375  1.0000
  C   C51       1.0  0.27754904546672077  0.9995915798584548  0.2314643366782641  1.0000
  C   C52       1.0  0.7224509544238689  0.49959157963416306  0.26853566367244786  1.0000
  C   C53       1.0  0.435430998467843  0.16359278182623221  0.6065310923946143  1.0000
  C   C54       1.0  0.5645690021940442  0.6635927810505251  0.8934689072846776  1.0000
  C   C55       1.0  0.5645690017649075  0.8364072186223517  0.39346890742950436  1.0000
  C   C56       1.0  0.4354309980387064  0.3364072183980597  0.10653109253944107  1.0000
  C   C57       1.0  0.5903572145734081  0.21521435302133132  0.7722478634687326  1.0000
  C   C58       1.0  0.4096427848987176  0.7152143532456233  0.7277521362121868  1.0000
  C   C59       1.0  0.40964278446958097  0.7847856464272536  0.22775213635701363  1.0000
  C   C60       1.0  0.5903572153340328  0.28478564720296057  0.2722478636119318  1.0000
  C   C61       1.0  0.11633393845152554  0.25346770163212917  0.3463562576305126  1.0000
  C   C62       1.0  0.8836660613520883  0.7534677018564212  0.15364374233843286  1.0000
  C   C63       1.0  0.883666061781225  0.7465322978164557  0.6536437421936061  1.0000
  C   C64       1.0  0.11633393769090074  0.24653229759216375  0.8463562574873135  1.0000
  C   C65       1.0  0.21420160906835886  0.4429101935168483  0.2769216722534091  1.0000
  C   C66       1.0  0.785798390735255  0.9429101937411403  0.22307832771553635  1.0000
  C   C67       1.0  0.785798390061606  0.5570898059317366  0.7230783279541035  1.0000
  C   C68       1.0  0.21420160949749545  0.05708980570744466  0.7769216721085823  1.0000
  C   C69       1.0  0.26855683575810235  0.44921638818825765  0.3282705331344215  1.0000
  C   C70       1.0  0.7314431640455115  0.9492163884125496  0.1717294668345239  1.0000
  C   C71       1.0  0.731443164561624  0.5507836122603261  0.6717294670714637  1.0000
  C   C72       1.0  0.26855683499747757  0.05078361203603425  0.8282705329912224  1.0000
  C   C73       1.0  0.730567233532719  0.12401275354682562  0.8463308622739096  1.0000
  C   C74       1.0  0.2694327660263825  0.6240127537711175  0.6536691377887766  1.0000
  C   C75       1.0  0.26943276551027  0.8759872459017592  0.15366913755183667  1.0000
  C   C76       1.0  0.7305672342933439  0.37598724667746636  0.3463308624171087  1.0000
  C   C77       1.0  0.4865854619059781  0.1959478773562303  0.6618788667973858  1.0000
  C   C78       1.0  0.5134145388428847  0.6959478775805222  0.8381211332636728  1.0000
  C   C79       1.0  0.5134145383267723  0.8040521230923535  0.33812113302673297  1.0000
  C   C80       1.0  0.4865854614768415  0.30405212286806166  0.16187886694221248  1.0000
  C   C81       1.0  0.06082863815896573  0.24534699478167604  0.2951811120854864  1.0000
  C   C82       1.0  0.9391713616446481  0.7453469940059689  0.204818887883459  1.0000
  C   C83       1.0  0.9391713620737847  0.7546530056669079  0.7048188877386323  1.0000
  C   C84       1.0  0.06082863867507818  0.2546530054426159  0.7951811123224263  1.0000
  C   C85       1.0  0.8695239907786235  0.31148709540668446  0.0825986807859872  1.0000
  C   C86       1.0  0.1304760090249904  0.8114870956309763  0.4174013191829583  1.0000
  C   C87       1.0  0.13047600945412705  0.6885129050418994  0.9174013190381316  1.0000
  C   C88       1.0  0.8695239901049745  0.1885129048176075  0.5825986810245546  1.0000
  C   C89       1.0  0.1873385602540901  0.5932961065968524  0.03388474715734274  1.0000
  C   C90       1.0  0.8126614395495237  0.09329610637256038  0.46611525281160265  1.0000
  C   C91       1.0  0.8126614400656361  0.4067038928517326  0.9661152530485425  1.0000
  C   C92       1.0  0.18733855949346526  0.9067038930760246  0.5338847470141436  1.0000
  N   N1        1.0  0.3015674141144417  0.26664404840898775  0.5264869828668407  1.0000
  N   N2        1.0  0.6984325866344213  0.7666440486332796  0.973513017194218  1.0000
  N   N3        1.0  0.6984325862052846  0.7333559510395972  0.47351301733904466  1.0000
  N   N4        1.0  0.3015674135983293  0.23335595181530422  0.026486982629900777  1.0000
  O   O1        1.0  0.3761649589190738  0.4833135419700108  0.42916500728103335  1.0000
  O   O2        1.0  0.6238350408845401  0.9833135421943026  0.0708349926879121  1.0000
  O   O3        1.0  0.6238350413136767  0.5166864584785731  0.5708349925430855  1.0000
  O   O4        1.0  0.37616495943518624  0.016686458254281198  0.9291650075179733  1.0000
  O   O5        1.0  0.5946061234021884  0.974638390900263  0.667966806302493  1.0000
  O   O6        1.0  0.4053938761569131  0.4746383906759711  0.832033193760193  1.0000
  O   O7        1.0  0.4053938769175379  0.025361609548320833  0.3320331939033923  1.0000
  O   O8        1.0  0.5946061240758375  0.5253616097726128  0.1679668060639257  1.0000
  O   O9        1.0  0.012939054079309308  0.33856908122851925  0.07144634615497066  1.0000
  O   O10       1.0  0.9870609457243045  0.8385690814528112  0.4285536538139748  1.0000
  O   O11       1.0  0.9870609449636798  0.6614309182200656  0.9285536536707757  1.0000
  O   O12       1.0  0.012939054595421778  0.1614309179957737  0.5714463463919106  1.0000
  O   O13       1.0  0.807926743459739  0.19834592094967024  0.07890895480371356  1.0000
  O   O14       1.0  0.1920732563438749  0.6983459211739622  0.4210910451652319  1.0000
  O   O15       1.0  0.19207325685998736  0.8016540784989146  0.9210910454021718  1.0000
  O   O16       1.0  0.8079267438888755  0.3016540782746227  0.5789089546588869  1.0000
  O   O17       1.0  0.2538115055415139  0.5055390576655631  0.009388589032573677  1.0000
  O   O18       1.0  0.7461884942621  0.005539057441271064  0.4906114109363718  1.0000
  O   O19       1.0  0.7461884947782124  0.4944609427830209  0.9906114111733116  1.0000
  O   O20       1.0  0.2538115059706505  0.9944609420073138  0.509388588887747  1.0000
  O   O21       1.0  0.08458831614031381  0.5741820367788041  0.06800746167041337  1.0000
  O   O22       1.0  0.9154116836633001  0.07418203655451219  0.43199253829853207  1.0000
  O   O23       1.0  0.9154116829026754  0.4258179626697807  0.9319925381553329  1.0000
  O   O24       1.0  0.08458831665642626  0.9258179628940727  0.5680074619073533  1.0000
  F   F1        1.0  0.7770425448635164  0.1329613575664414  0.8970615850798932  1.0000
  F   F2        1.0  0.2229574546955851  0.6329613577907333  0.6029384149827929  1.0000
  F   F3        1.0  0.22295745417947266  0.8670386418821435  0.10293841474585305  1.0000
  F   F4        1.0  0.7770425456241412  0.3670386426578506  0.39706158522309243  1.0000
  Cl  Cl1       1.0  0.04355689744331363  0.3312629685605789  0.19659901277729144  1.0000
  Cl  Cl2       1.0  0.9564431035500618  0.8312629687848709  0.30340098719002656  1.0000
  Cl  Cl3       1.0  0.9564431028764127  0.6687370318880049  0.803400987428594  1.0000
  Cl  Cl4       1.0  0.043556896682688806  0.168737031663713  0.6965990126340922  1.0000
