data_image0
_chemical_formula_structural       H56C36N2O4F8I2
_chemical_formula_sum              "H56 C36 N2 O4 F8 I2"
_cell_length_a       9.22994482732198
_cell_length_b       10.818846577778107
_cell_length_c       11.666175690510292
_cell_angle_alpha    106.05791837319599
_cell_angle_beta     97.95561658395934
_cell_angle_gamma    109.87836853588425

_space_group_name_H-M_alt    "P 1"
_space_group_IT_number       1

loop_
  _space_group_symop_operation_xyz
  'x, y, z'

loop_
  _atom_site_type_symbol
  _atom_site_label
  _atom_site_symmetry_multiplicity
  _atom_site_fract_x
  _atom_site_fract_y
  _atom_site_fract_z
  _atom_site_occupancy
  H   H1        1.0  0.0995280189828551  0.9984402356671267  0.297048361502841  1.0000
  H   H2        1.0  0.9004719814475663  0.0015597647543253404  0.7029516378815825  1.0000
  H   H3        1.0  0.924665852020365  0.8545547269636633  0.2863112773560515  1.0000
  H   H4        1.0  0.0753341472311637  0.14544527283157666  0.7136887229425428  1.0000
  H   H5        1.0  0.3288099185454391  0.7714946156492634  0.23511160015168917  1.0000
  H   H6        1.0  0.6711900804058799  0.22850538378731486  0.7648883992238866  1.0000
  H   H7        1.0  0.20358873713258624  0.7796561393147129  0.11086713155456906  1.0000
  H   H8        1.0  0.7964112632978351  0.22034386110673906  0.8891328678298545  1.0000
  H   H9        1.0  0.20722662454135624  0.7675716215978429  0.6100756980290877  1.0000
  H   H10       1.0  0.7927733747101725  0.23242837819739715  0.38992430226950664  1.0000
  H   H11       1.0  0.06765569923970204  0.8281071925492148  0.6697446156468927  1.0000
  H   H12       1.0  0.9323443000118268  0.17189280724602504  0.3302553846517015  1.0000
  H   H13       1.0  0.2510155470412602  0.9503797545787681  0.664134977715957  1.0000
  H   H14       1.0  0.7489844519100588  0.04962024485781002  0.3358650216596187  1.0000
  H   H15       1.0  0.018525248538773045  0.9086421513440823  0.4943175148229793  1.0000
  H   H16       1.0  0.9814747517967765  0.09135784845109264  0.5056824854791928  1.0000
  H   H17       1.0  0.9788981532438813  0.7294402762942641  0.4417414575706994  1.0000
  H   H18       1.0  0.021101846402728896  0.2705597244859144  0.5582585427331647  1.0000
  H   H19       1.0  0.27084134428058615  0.9727416023872857  0.4406035833921823  1.0000
  H   H20       1.0  0.7291586546707327  0.02725839704929237  0.5593964159833935  1.0000
  H   H21       1.0  0.2787281067974131  0.8076859656407605  0.4258321483657079  1.0000
  H   H22       1.0  0.721271892153906  0.19231403379581782  0.5741678510098679  1.0000
  H   H23       1.0  0.8100238714936229  0.9122602577695367  0.994201076131901  1.0000
  H   H24       1.0  0.18997612775790582  0.08773974202570324  0.005798924166693274  1.0000
  H   H25       1.0  0.9265396904415307  0.050882581945746755  0.13568177067963974  1.0000
  H   H26       1.0  0.07346030850978831  0.9491174174908314  0.864318228695936  1.0000
  H   H27       1.0  0.7607980084552091  0.9064810866869173  0.1350877686518152  1.0000
  H   H28       1.0  0.2392019911914013  0.09351891409326119  0.8649122316520488  1.0000
  H   H29       1.0  0.9013044896203214  0.7465829783383569  0.05947395641909165  1.0000
  H   H30       1.0  0.09869551111030962  0.253417022441757  0.9405260438883505  1.0000
  H   H31       1.0  0.06792711200822972  0.8939178140470208  0.06953992006146355  1.0000
  H   H32       1.0  0.9320728880271102  0.10608218538949268  0.9304600793176903  1.0000
  H   H33       1.0  0.45096531515808125  0.024205111160291694  0.33383889494976066  1.0000
  H   H34       1.0  0.5490346840934474  0.9757948886349481  0.6661611053488335  1.0000
  H   H35       1.0  0.30663743823208073  0.049405488425619204  0.2379276017043596  1.0000
  H   H36       1.0  0.6933625621034688  0.950594511369556  0.7620723985978127  1.0000
  H   H37       1.0  0.396181515465614  0.9536935825672601  0.052734730388515685  1.0000
  H   H38       1.0  0.6038184845697258  0.04630641686925325  0.947265268990638  1.0000
  H   H39       1.0  0.5377283906169938  0.9210938298996753  0.14571329888427234  1.0000
  H   H40       1.0  0.4622716101136373  0.0789061708804386  0.8542867014231698  1.0000
  H   H41       1.0  0.5587342454202212  0.09608083428065245  0.16777722165541067  1.0000
  H   H42       1.0  0.4412657535310978  0.9039191651559256  0.8322227777201651  1.0000
  H   H43       1.0  0.9084880045570868  0.6410164169576811  0.24969071224463138  1.0000
  H   H44       1.0  0.09151199508952364  0.35898358382249757  0.7503092880592327  1.0000
  H   H45       1.0  0.9992722514848014  0.6164624498677286  0.1257439760331573  1.0000
  H   H46       1.0  0.0007277485505384074  0.38353754956878466  0.8742560233459965  1.0000
  H   H47       1.0  0.9726539459493956  0.3774126107075981  0.10727574070509648  1.0000
  H   H48       1.0  0.02734605300192342  0.6225873887289801  0.8927242586704793  1.0000
  H   H49       1.0  0.8640629444751214  0.38090692027093076  0.22169174661231011  1.0000
  H   H50       1.0  0.13593705586042815  0.6190930795242443  0.7783082536898621  1.0000
  H   H51       1.0  0.0348744385369255  0.3399201792016228  0.24026945961698848  1.0000
  H   H52       1.0  0.9651255617986241  0.6600798205935523  0.7597305406851839  1.0000
  H   H53       1.0  0.10292965667238677  0.5854605085989977  0.37415754184600847  1.0000
  H   H54       1.0  0.8970703436631627  0.41453949119617733  0.6258424584561637  1.0000
  H   H55       1.0  0.21201282080595996  0.579800558385542  0.2606527672451448  1.0000
  H   H56       1.0  0.7879871796244615  0.42019944203591014  0.7393472321392788  1.0000
  C   C1        1.0  0.026563990008343606  0.8866414336214002  0.24657767252487836  1.0000
  C   C2        1.0  0.9734360103272058  0.1133585661737748  0.7534223277772939  1.0000
  C   C3        1.0  0.2609880936001941  0.8302564347917804  0.2099504222308181  1.0000
  C   C4        1.0  0.7390119064351457  0.16974356464473297  0.7900495771483357  1.0000
  C   C5        1.0  0.15543564109792202  0.8459801978449362  0.6154633774518399  1.0000
  C   C6        1.0  0.8445643592376275  0.154019801950239  0.38453662285033235  1.0000
  C   C7        1.0  0.07550041883056734  0.8336259199853896  0.48717948933433747  1.0000
  C   C8        1.0  0.9244995804209614  0.1663740798098502  0.5128205109642568  1.0000
  C   C9        1.0  0.19795714466229236  0.8600678410368787  0.41232552382442234  1.0000
  C   C10       1.0  0.8020428542890268  0.1399321583996994  0.5876744755511535  1.0000
  C   C11       1.0  0.86013194018334  0.9369073700192182  0.09261010749174318  1.0000
  C   C12       1.0  0.13986805906818875  0.06309262977602181  0.9073898928068512  1.0000
  C   C13       1.0  0.9674831234002951  0.8593877675306805  0.11005972240779716  1.0000
  C   C14       1.0  0.0325168769352545  0.14061223226449454  0.889940277894375  1.0000
  C   C15       1.0  0.37223404170043595  0.9819629827301979  0.24016546609392905  1.0000
  C   C16       1.0  0.6277659586351138  0.018037017064977314  0.7598345342082433  1.0000
  C   C17       1.0  0.47212937163295265  0.9889043454123589  0.14636802363586274  1.0000
  C   C18       1.0  0.5278706287025968  0.01109565438281617  0.8536319766663095  1.0000
  C   C19       1.0  0.02225437393982344  0.6507928130583162  0.22640262127085153  1.0000
  C   C20       1.0  0.9777456257067868  0.3492071877218625  0.7735973790330124  1.0000
  C   C21       1.0  0.9841972459491058  0.40557646122141516  0.2069677455631273  1.0000
  C   C22       1.0  0.01580275408623393  0.5944235382150982  0.7930322538160265  1.0000
  C   C23       1.0  0.09196409622486176  0.560498105786716  0.274604317266777  1.0000
  C   C24       1.0  0.9080359041106878  0.4395018940084592  0.7253956830353954  1.0000
  C   C25       1.0  0.5336252078741616  0.39584969703820627  0.03710303837075248  1.0000
  C   C26       1.0  0.46637479246138813  0.6041503027569688  0.9628969619314199  1.0000
  C   C27       1.0  0.4144398946737274  0.4302647543412156  0.071383828460901  1.0000
  C   C28       1.0  0.5855601056618222  0.5697352454539594  0.9286161718412713  1.0000
  C   C29       1.0  0.3638901375226489  0.529548561818877  0.02874925857793694  1.0000
  C   C30       1.0  0.6361098628129007  0.47045143797629824  0.9712507417242353  1.0000
  C   C31       1.0  0.36373376157679876  0.3686011628315285  0.42322121039105187  1.0000
  C   C32       1.0  0.6362662391538324  0.6313988379485853  0.5767787899163902  1.0000
  C   C33       1.0  0.34570257282984024  0.4851082381586597  0.5138157550796646  1.0000
  C   C34       1.0  0.6542974276005812  0.5148917622627923  0.4861842443047589  1.0000
  C   C35       1.0  0.469913991720341  0.6078528511283814  0.579825793066537  1.0000
  C   C36       1.0  0.5300860079262694  0.3921471496517972  0.420174207237327  1.0000
  N   N1        1.0  0.12717184959608113  0.8075114464229547  0.2742063051754999  1.0000
  N   N2        1.0  0.87282815113455  0.19248855435715903  0.7257936951319423  1.0000
  O   O1        1.0  0.23561505184127468  0.5388160836686496  0.03735397424170937  1.0000
  O   O2        1.0  0.7643849474102541  0.46118391612659043  0.962646026056885  1.0000
  O   O3        1.0  0.2485963633166568  0.26523038632720974  0.3496481111557755  1.0000
  O   O4        1.0  0.7514036359348719  0.7347696134680302  0.6503518891428187  1.0000
  F   F1        1.0  0.32672133839290796  0.3671497694647568  0.13725316583111047  1.0000
  F   F2        1.0  0.6732786608586208  0.632850230330483  0.8627468344674837  1.0000
  F   F3        1.0  0.5764073807017757  0.3033774658755162  0.07434593321964593  1.0000
  F   F4        1.0  0.4235926193335643  0.6966225335609972  0.9256540661595078  1.0000
  F   F5        1.0  0.19642409229923566  0.4672580273114778  0.5218484426919273  1.0000
  F   F6        1.0  0.803575906952293  0.5327419724837621  0.4781515576066669  1.0000
  F   F7        1.0  0.44793182117223984  0.7108381624905502  0.6610887789186459  1.0000
  F   F8        1.0  0.5520681777790791  0.2891618369460281  0.3389112204569298  1.0000
  I   I1        1.0  0.6044101242467033  0.7304173347112489  0.32355300423440425  1.0000
  I   I2        1.0  0.3955898757886366  0.2695826647252645  0.6764469951447495  1.0000
