data_image0
_chemical_formula_structural       H40C46N4O8S4Cl4
_chemical_formula_sum              "H40 C46 N4 O8 S4 Cl4"
_cell_length_a       24.75035477620811
_cell_length_b       4.5851139428196035
_cell_length_c       10.394571672365451
_cell_angle_alpha    90.0
_cell_angle_beta     95.34655436353299
_cell_angle_gamma    90.0

_space_group_name_H-M_alt    "P 1"
_space_group_IT_number       1

loop_
  _space_group_symop_operation_xyz
  'x, y, z'

loop_
  _atom_site_type_symbol
  _atom_site_label
  _atom_site_symmetry_multiplicity
  _atom_site_fract_x
  _atom_site_fract_y
  _atom_site_fract_z
  _atom_site_occupancy
  H   H1        1.0  0.2546753716183538  0.8184505787204699  0.556146886011102  1.0000
  H   H2        1.0  0.7453246282890442  0.8184505787204699  0.4438531135801624  1.0000
  H   H3        1.0  0.7546753716084151  0.31845057902794355  0.55614688681586  1.0000
  H   H4        1.0  0.24532462833193866  0.31845057902794355  0.443853113741579  1.0000
  H   H5        1.0  0.22046716216813853  0.18416970887330109  0.7262835126349994  1.0000
  H   H6        1.0  0.7795328377392594  0.18416970887330109  0.2737164869562649  1.0000
  H   H7        1.0  0.7204671621252441  0.6841697085658274  0.7262835124735828  1.0000
  H   H8        1.0  0.27953283778215393  0.6841697085658274  0.2737164871176815  1.0000
  H   H9        1.0  0.36388677365175665  0.40031646168236035  0.42539961818688476  1.0000
  H   H10       1.0  0.6361132262885971  0.40031646168236035  0.5746003823705541  1.0000
  H   H11       1.0  0.8638867736088622  0.9003164613748866  0.4253996180254682  1.0000
  H   H12       1.0  0.1361132262985358  0.9003164613748866  0.574600381565796  1.0000
  H   H13       1.0  0.5298141163218707  0.9634911160535603  0.05357488810481464  1.0000
  H   H14       1.0  0.4701858840229427  0.9634911160535603  0.9464251124642324  1.0000
  H   H15       1.0  0.02981411636476511  0.46349111636103396  0.053574888266231246  1.0000
  H   H16       1.0  0.9701858839800482  0.46349111636103396  0.9464251123028158  1.0000
  H   H17       1.0  0.36604719162775406  0.8316678663944013  0.06541488561430053  1.0000
  H   H18       1.0  0.6339528087170594  0.8316678663944013  0.9345851149547466  1.0000
  H   H19       1.0  0.8660471915848597  0.3316678667018748  0.06541488545288393  1.0000
  H   H20       1.0  0.13395280835549406  0.3316678667018748  0.9345851151045551  1.0000
  H   H21       1.0  0.5109483860501285  0.8717148471870058  0.3306266890533251  1.0000
  H   H22       1.0  0.48905161385726953  0.8717148471870058  0.669373310537939  1.0000
  H   H23       1.0  0.010948386093022849  0.3717148474944794  0.33062668921474175  1.0000
  H   H24       1.0  0.9890516138473308  0.3717148474944794  0.6693733113426972  1.0000
  H   H25       1.0  0.32157580111600265  0.1686071926763492  0.21336232000359426  1.0000
  H   H26       1.0  0.6784241991958552  0.1686071926763492  0.7866376795992781  1.0000
  H   H27       1.0  0.8215758010731081  0.6686071923688756  0.21336231984217763  1.0000
  H   H28       1.0  0.17842419923874953  0.6686071923688756  0.7866376797606948  1.0000
  H   H29       1.0  0.4598932966000775  0.22107493131929812  0.46552139006897  1.0000
  H   H30       1.0  0.5401067037117803  0.22107493131929812  0.5344786095339025  1.0000
  H   H31       1.0  0.9598932965571831  0.7210749310118245  0.4655213899075533  1.0000
  H   H32       1.0  0.040106703350215  0.7210749310118245  0.5344786096837109  1.0000
  H   H33       1.0  0.4422099778662978  0.48821705369080126  0.04386956974565715  1.0000
  H   H34       1.0  0.5577900220411002  0.48821705369080126  0.9561304298456073  1.0000
  H   H35       1.0  0.9422099778234034  0.9882170533833277  0.04386956958424055  1.0000
  H   H36       1.0  0.05779002208399466  0.9882170533833277  0.9561304300070236  1.0000
  H   H37       1.0  0.5016619600089837  0.500657734710153  0.15377317544451719  1.0000
  H   H38       1.0  0.4983380398984143  0.500657734710153  0.8462268241467471  1.0000
  H   H39       1.0  0.0016619600518781006  0.0006577350176265081  0.1537731756059338  1.0000
  H   H40       1.0  0.9983380398884756  0.0006577350176265081  0.846226824951505  1.0000
  C   C1        1.0  0.28064671929783885  0.9145808680648064  0.6349904974842042  1.0000
  C   C2        1.0  0.7193532806095592  0.9145808680648064  0.36500950210706  1.0000
  C   C3        1.0  0.7806467192549444  0.41458086837228003  0.6349904973227877  1.0000
  C   C4        1.0  0.2193532806524536  0.41458086837228003  0.3650095022684766  1.0000
  C   C5        1.0  0.3687403801443805  0.6701721589301182  0.5793041090921298  1.0000
  C   C6        1.0  0.6312596201674773  0.6701721589301182  0.4206958905107425  1.0000
  C   C7        1.0  0.8687403801344417  0.1701721592375918  0.5793041098968879  1.0000
  C   C8        1.0  0.13125961980591197  0.1701721592375918  0.4206958906605511  1.0000
  C   C9        1.0  0.33572058438581764  0.8605462457872095  0.6545838281116648  1.0000
  C   C10       1.0  0.6642794155215805  0.8605462457872095  0.3454161714795994  1.0000
  C   C11       1.0  0.8357205843429233  0.3605462460946832  0.6545838279502483  1.0000
  C   C12       1.0  0.16427941556447484  0.3605462460946832  0.345416171641016  1.0000
  C   C13       1.0  0.3039016799880843  0.1978581822204659  0.8148756887188822  1.0000
  C   C14       1.0  0.6960983199193137  0.1978581822204659  0.18512431087238207  1.0000
  C   C15       1.0  0.8039016799451899  0.6978581819129922  0.8148756885574655  1.0000
  C   C16       1.0  0.19609831996220814  0.6978581819129922  0.18512431103379867  1.0000
  C   C17       1.0  0.2620648455263488  0.1087173004240458  0.7266846714788069  1.0000
  C   C18       1.0  0.7379351543810493  0.1087173004240458  0.2733153281124574  1.0000
  C   C19       1.0  0.7620648454834544  0.6087173022975431  0.7266846713173902  1.0000
  C   C20       1.0  0.23793515442394367  0.6087173022975431  0.27331532827387395  1.0000
  C   C21       1.0  0.4999999999571056  0.8201882367371212  0.9999999998385833  1.0000
  C   C22       1.0  0.0  0.32018823486362397  0.0  1.0000
  C   C23       1.0  0.44248885103933455  0.8262456260073474  0.18579109409757463  1.0000
  C   C24       1.0  0.5575111492725231  0.8262456260073474  0.8142089055052977  1.0000
  C   C25       1.0  0.9424888509964401  0.326245626314821  0.18579109393615803  1.0000
  C   C26       1.0  0.057511149315417585  0.326245626314821  0.8142089056667142  1.0000
  C   C27       1.0  0.3884823065713663  0.9113569569070152  0.1536207018823874  1.0000
  C   C28       1.0  0.6115176933689874  0.9113569569070152  0.8463792986750516  1.0000
  C   C29       1.0  0.8884823065284718  0.41135695721448884  0.1536207017209708  1.0000
  C   C30       1.0  0.11151769341188178  0.41135695721448884  0.846379298836468  1.0000
  C   C31       1.0  0.46919310962146654  0.9362925662344666  0.3004966560503301  1.0000
  C   C32       1.0  0.5308068903188872  0.9362925662344666  0.6995033445071088  1.0000
  C   C33       1.0  0.9691931099830318  0.4362925665419403  0.3004966559005216  1.0000
  C   C34       1.0  0.030806890361781587  0.4362925665419403  0.6995033446685255  1.0000
  C   C35       1.0  0.36359247833370406  0.0985136150667241  0.23492951966352396  1.0000
  C   C36       1.0  0.6364075219781536  0.0985136150667241  0.7650704799393483  1.0000
  C   C37       1.0  0.8635924782908095  0.5985136147592505  0.2349295195021074  1.0000
  C   C38       1.0  0.13640752161658837  0.5985136147592505  0.7650704800891569  1.0000
  C   C39       1.0  0.44150307803277655  0.1249887084916327  0.3759759397977033  1.0000
  C   C40       1.0  0.5584969218746214  0.1249887084916327  0.6240240597935609  1.0000
  C   C41       1.0  0.941503078394342  0.6249887103651299  0.3759759396478947  1.0000
  C   C42       1.0  0.058496921917515876  0.6249887103651299  0.6240240599549776  1.0000
  C   C43       1.0  0.47146163322364176  0.6353428347319511  0.09689287384972757  1.0000
  C   C44       1.0  0.5285383666837562  0.6353428347319511  0.9031071257415367  1.0000
  C   C45       1.0  0.9714616331807474  0.13534283503942476  0.09689287368831094  1.0000
  C   C46       1.0  0.028538366726650638  0.13534283503942476  0.9031071259029534  1.0000
  N   N1        1.0  0.3898444668550534  0.2038353422958264  0.34382403722278065  1.0000
  N   N2        1.0  0.6101555330853004  0.2038353422958264  0.6561759633346583  1.0000
  N   N3        1.0  0.889844466812159  0.7038353419883527  0.343824037061364  1.0000
  N   N4        1.0  0.11015553312819468  0.7038353419883527  0.6561759634960749  1.0000
  O   O1        1.0  0.3397755761067475  0.5480326555319507  0.4807127415554472  1.0000
  O   O2        1.0  0.6602244238336061  0.5480326555319507  0.5192872590019918  1.0000
  O   O3        1.0  0.8397755760638531  0.04803265583942434  0.4807127413940305  1.0000
  O   O4        1.0  0.16022442387650054  0.04803265583942434  0.5192872591634085  1.0000
  O   O5        1.0  0.4181365352049969  0.6319065275438442  0.6078780722476212  1.0000
  O   O6        1.0  0.5818634647024011  0.6319065275438442  0.39212192734364304  1.0000
  O   O7        1.0  0.9181365355665623  0.1319065278513179  0.6078780720978126  1.0000
  O   O8        1.0  0.08186346474529554  0.1319065278513179  0.3921219275050596  1.0000
  S   S1        1.0  0.36559334182141473  0.04930696223025025  0.7864544357058203  1.0000
  S   S2        1.0  0.6344066580859833  0.04930696223025025  0.21354556388544413  1.0000
  S   S3        1.0  0.86559334218298  0.5493069619227766  0.7864544355560116  1.0000
  S   S4        1.0  0.13440665812887773  0.5493069619227766  0.21354556404686073  1.0000
  Cl  Cl1       1.0  0.29788121511992416  0.43221183698247073  0.9405860531968921  1.0000
  Cl  Cl2       1.0  0.7021187848204294  0.43221183698247073  0.059413947360546775  1.0000
  Cl  Cl3       1.0  0.7978812150770297  0.9322118366749972  0.9405860530354755  1.0000
  Cl  Cl4       1.0  0.20211878483036827  0.9322118366749972  0.05941394655578868  1.0000
