data_image0
_chemical_formula_structural       H24C36N2O4S2Cl2
_chemical_formula_sum              "H24 C36 N2 O4 S2 Cl2"
_cell_length_a       7.453107437063047
_cell_length_b       8.742465324157497
_cell_length_c       12.011852492944858
_cell_angle_alpha    74.4316565304731
_cell_angle_beta     85.8748317858439
_cell_angle_gamma    85.79215272498732

_space_group_name_H-M_alt    "P 1"
_space_group_IT_number       1

loop_
  _space_group_symop_operation_xyz
  'x, y, z'

loop_
  _atom_site_type_symbol
  _atom_site_label
  _atom_site_symmetry_multiplicity
  _atom_site_fract_x
  _atom_site_fract_y
  _atom_site_fract_z
  _atom_site_occupancy
  H   H1        1.0  0.1262419036827765  0.29436728246308036  0.46218888556388527  1.0000
  H   H2        1.0  0.8737580962516696  0.705632717109025  0.5378111151664301  1.0000
  H   H3        1.0  0.3749329366820024  0.10018460027211781  0.5866058019199812  1.0000
  H   H4        1.0  0.6250670632216114  0.8998154007681928  0.4133941979518823  1.0000
  H   H5        1.0  0.30412823202930805  0.7504098158396083  0.1426033375403129  1.0000
  H   H6        1.0  0.6958717679638134  0.2495901840563706  0.8573966623245777  1.0000
  H   H7        1.0  0.16366925078515948  0.6308797802468588  0.01124841764663435  1.0000
  H   H8        1.0  0.8363307491184545  0.3691202207934517  0.9887515822252293  1.0000
  H   H9        1.0  0.04197191891326748  0.6100815087499389  0.8271964377529682  1.0000
  H   H10       1.0  0.9580280810211784  0.38991849082216656  0.17280356297734709  1.0000
  H   H11       1.0  0.9921340542248182  0.8501927886767162  0.666671981832927  1.0000
  H   H12       1.0  0.007865945768303436  0.14980721121926288  0.3333280180319636  1.0000
  H   H13       1.0  0.06147123405551827  0.11756955395842214  0.6852951909765996  1.0000
  H   H14       1.0  0.9385287659376033  0.8824304459375567  0.31470480888829094  1.0000
  H   H15       1.0  0.17830850116778516  0.27973950855175905  0.8018691470333812  1.0000
  H   H16       1.0  0.8216914987666609  0.7202604910203464  0.19813085369693398  1.0000
  H   H17       1.0  0.30523605735483494  0.4333564831408555  0.9241791994888598  1.0000
  H   H18       1.0  0.694763942579611  0.5666435164312499  0.07582080124145547  1.0000
  H   H19       1.0  0.431759861051459  0.4354195781221593  0.10967874367722902  1.0000
  H   H20       1.0  0.5682401388829871  0.5645804214499459  0.8903212570530863  1.0000
  H   H21       1.0  0.4797184599581916  0.18296753443495636  0.2628175501418797  1.0000
  H   H22       1.0  0.5202815399762544  0.8170324651371489  0.7371824505884357  1.0000
  H   H23       1.0  0.39825431081675444  0.9268072233599627  0.23334019253599256  1.0000
  H   H24       1.0  0.6017456891176916  0.07319277621214268  0.7666598081943227  1.0000
  C   C1        1.0  0.24967100819430682  0.5567082349370241  0.2783837056443564  1.0000
  C   C2        1.0  0.7503289917988146  0.44329176495895495  0.7216162942205342  1.0000
  C   C3        1.0  0.34360111287104556  0.4325581928427353  0.3667743636092963  1.0000
  C   C4        1.0  0.656398887122076  0.5674418070532438  0.6332256362555942  1.0000
  C   C5        1.0  0.2707655102311101  0.3082676681364171  0.4504601162230677  1.0000
  C   C6        1.0  0.7292344897620113  0.6917323317595621  0.5495398836418229  1.0000
  C   C7        1.0  0.4024280282514414  0.20538222544633292  0.5166351174782672  1.0000
  C   C8        1.0  0.5975719717416801  0.7946177744496461  0.4833648823866234  1.0000
  C   C9        1.0  0.5739341893701567  0.25539440916317746  0.48104298955890773  1.0000
  C   C10       1.0  0.4260658106229648  0.7446055907328015  0.518957010305983  1.0000
  C   C11       1.0  0.14450734084744835  0.7350728738287922  0.9384125029428593  1.0000
  C   C12       1.0  0.8554926591456732  0.264927126067187  0.06158749692203124  1.0000
  C   C13       1.0  0.07723381734722917  0.7242808488699913  0.8373796651608695  1.0000
  C   C14       1.0  0.9227661826458924  0.2757191510259877  0.16262033470402115  1.0000
  C   C15       1.0  0.048600847801175295  0.8625567813600787  0.7446557029848878  1.0000
  C   C16       1.0  0.9513991521919462  0.13744321853590025  0.2553442968800029  1.0000
  C   C17       1.0  0.08770012866151061  0.009532448289245774  0.754072549262682  1.0000
  C   C18       1.0  0.912299871331611  0.9904675516067332  0.2459274506022086  1.0000
  C   C19       1.0  0.2038700305119493  0.1716327436303622  0.8706126304371384  1.0000
  C   C20       1.0  0.7961299694811722  0.8283672562656168  0.12938736942775203  1.0000
  C   C21       1.0  0.3250100059151383  0.3238908383804375  0.9925523664735422  1.0000
  C   C22       1.0  0.6749899940779831  0.6761091615155413  0.007447633391348512  1.0000
  C   C23       1.0  0.39499705213449926  0.3244604639519958  0.09503342871836301  1.0000
  C   C24       1.0  0.6050029478586223  0.6755395359439832  0.9049665711465276  1.0000
  C   C25       1.0  0.4217530086407187  0.18027206237830104  0.18268253877020035  1.0000
  C   C26       1.0  0.5782469913524028  0.8197279375176778  0.8173174610946902  1.0000
  C   C27       1.0  0.37767069924152585  0.03816714804615284  0.16712855050051467  1.0000
  C   C28       1.0  0.6223293007515958  0.9618328518498261  0.832871449364376  1.0000
  C   C29       1.0  0.18874298689489946  0.884968717478773  0.950650044882481  1.0000
  C   C30       1.0  0.8112570130087146  0.1150312835615375  0.049349954989382716  1.0000
  C   C31       1.0  0.1596390297042687  0.02536878308460613  0.8567564291484498  1.0000
  C   C32       1.0  0.8403609702888528  0.9746312168113729  0.14324357071644073  1.0000
  C   C33       1.0  0.3024490904488822  0.03363298315322868  0.06256703119962453  1.0000
  C   C34       1.0  0.6975509094855638  0.9663670164188767  0.9374329695306908  1.0000
  C   C35       1.0  0.2762907035817736  0.17930380544651314  0.9729846234625328  1.0000
  C   C36       1.0  0.723709296411348  0.8206961944494658  0.027015376402357804  1.0000
  N   N1        1.0  0.2580494230632017  0.8926681787112374  0.04962978486730061  1.0000
  N   N2        1.0  0.7419505769299198  0.10733182118474162  0.9503702149975901  1.0000
  O   O1        1.0  0.3644775222807885  0.6546671023609087  0.21058915700546865  1.0000
  O   O2        1.0  0.6355224777123331  0.34533289753507024  0.7894108428594219  1.0000
  O   O3        1.0  0.08473982324272657  0.5632142453768177  0.2695114216329724  1.0000
  O   O4        1.0  0.915260176750395  0.4367857545191612  0.7304885782319182  1.0000
  S   S1        1.0  0.5759033389549142  0.4259082812578531  0.36889005965174887  1.0000
  S   S2        1.0  0.4240966609795318  0.5740917183142522  0.6311099410785664  1.0000
  Cl  Cl1       1.0  0.7701891752063248  0.16641332119062097  0.5390953057708295  1.0000
  Cl  Cl2       1.0  0.22981082478679662  0.8335866787053582  0.46090469409406104  1.0000
