data_image0
_chemical_formula_structural       H20C24N4O4Cl4
_chemical_formula_sum              "H20 C24 N4 O4 Cl4"
_cell_length_a       3.7285713601886576
_cell_length_b       13.147154310727744
_cell_length_c       13.099203624552054
_cell_angle_alpha    108.81219287519569
_cell_angle_beta     92.70968328754824
_cell_angle_gamma    95.92323374425654

_space_group_name_H-M_alt    "P 1"
_space_group_IT_number       1

loop_
  _space_group_symop_operation_xyz
  'x, y, z'

loop_
  _atom_site_type_symbol
  _atom_site_label
  _atom_site_symmetry_multiplicity
  _atom_site_fract_x
  _atom_site_fract_y
  _atom_site_fract_z
  _atom_site_occupancy
  H   H1        1.0  0.0874923396317722  0.09624748388265564  0.00019537319514646622  1.0000
  H   H2        1.0  0.9125076608006357  0.9037525160571181  0.9998046272285501  1.0000
  H   H3        1.0  0.9196851954449855  0.2799810864890681  0.006361336097620251  1.0000
  H   H4        1.0  0.0803148047458903  0.7200189131805299  0.9936386635166332  1.0000
  H   H5        1.0  0.08153057800369076  0.43754131815894626  0.17403067028540142  1.0000
  H   H6        1.0  0.9184694227116091  0.5624586825443573  0.8259693301347618  1.0000
  H   H7        1.0  0.32251690997159815  0.49662245956656836  0.3697317513534246  1.0000
  H   H8        1.0  0.6774830902192777  0.5033775401030295  0.6302682482608288  1.0000
  H   H9        1.0  0.5625826282359763  0.4101419425986849  0.41542720996162047  1.0000
  H   H10       1.0  0.4374173719548996  0.589858057070913  0.584572789652633  1.0000
  H   H11       1.0  0.1611064465626424  0.4027508193861068  0.6924715081380669  1.0000
  H   H12       1.0  0.8388935538697655  0.597249180553667  0.3075284922856298  1.0000
  H   H13       1.0  0.32774933920977845  0.1602012713640628  0.8404973035313084  1.0000
  H   H14       1.0  0.6722506609810974  0.839798728305535  0.15950269608294512  1.0000
  H   H15       1.0  0.024080873550004718  0.01687877174517649  0.6749204868325841  1.0000
  H   H16       1.0  0.975919126882403  0.9831212281945972  0.32507951359111265  1.0000
  H   H17       1.0  0.7837640791499145  0.06812588271962587  0.5191620575706039  1.0000
  H   H18       1.0  0.2162359212824933  0.931874117220148  0.4808379428530928  1.0000
  H   H19       1.0  0.5898422342818593  0.21982389045474568  0.3554992365535958  1.0000
  H   H20       1.0  0.4101577661505485  0.7801761094850281  0.6445007638701008  1.0000
  C   C1        1.0  0.3287911628372022  0.16123696871457513  0.16452657231145534  1.0000
  C   C2        1.0  0.6712088373536736  0.8387630309550227  0.8354734273027982  1.0000
  C   C3        1.0  0.15495203327242002  0.1675952377133779  0.07144969288389667  1.0000
  C   C4        1.0  0.8450479671599878  0.8324047622263959  0.9285503075398  1.0000
  C   C5        1.0  0.06185854040723048  0.2697536701010168  0.07628346560688216  1.0000
  C   C6        1.0  0.9381414600665373  0.730246330332111  0.923716534003838  1.0000
  C   C7        1.0  0.1483500386925695  0.35764438708236973  0.1693293672816658  1.0000
  C   C8        1.0  0.8516499617398383  0.642355612857404  0.8306706331420308  1.0000
  C   C9        1.0  0.3323448268098718  0.3436357606898144  0.26003765791336236  1.0000
  C   C10       1.0  0.6676551736638959  0.6563642397433134  0.7399623416973578  1.0000
  C   C11       1.0  0.12820832517698416  0.318634928864202  0.6897071683576594  1.0000
  C   C12       1.0  0.8717916752967836  0.6813650715689257  0.31029283125306073  1.0000
  C   C13       1.0  0.26054225875182463  0.28900347313409164  0.7756933935800069  1.0000
  C   C14       1.0  0.7394577416805832  0.710996526805682  0.22430660684368967  1.0000
  C   C15       1.0  0.22243386525335904  0.18092547266324185  0.7716870305123136  1.0000
  C   C16       1.0  0.7775661354619408  0.8190745280400618  0.2283129699078497  1.0000
  C   C17       1.0  0.052594556816481904  0.1012789312384885  0.6786718648023434  1.0000
  C   C18       1.0  0.9474054438988179  0.8987210694648151  0.32132813561781987  1.0000
  C   C19       1.0  0.9195992943088006  0.12948075465505499  0.5915654137997485  1.0000
  C   C20       1.0  0.0804007058820753  0.870519245014543  0.4084345858145051  1.0000
  C   C21       1.0  0.9547829834190605  0.23830043378584653  0.5973291334489079  1.0000
  C   C22       1.0  0.04521701705470728  0.7616995666472812  0.4026708661618123  1.0000
  C   C23       1.0  0.8042583888601202  0.2724890718360622  0.5079312666174951  1.0000
  C   C24       1.0  0.19574161133075563  0.7275109278335357  0.4920687329967584  1.0000
  N   N1        1.0  0.41665517778087524  0.2439467043716858  0.2561333793711925  1.0000
  N   N2        1.0  0.5833448224100005  0.7560532952979121  0.743866620243061  1.0000
  N   N3        1.0  0.43805879567662176  0.42668749619675034  0.3519017089956298  1.0000
  N   N4        1.0  0.5619412018336283  0.5733125034753409  0.6480982906212673  1.0000
  O   O1        1.0  0.7002956492492017  0.19253211799102615  0.4170956393363463  1.0000
  O   O2        1.0  0.2997043511832061  0.8074678819487475  0.5829043610873503  1.0000
  O   O3        1.0  0.7801091145836295  0.3694623940811118  0.5207916650401401  1.0000
  O   O4        1.0  0.2198908858487783  0.630537605858662  0.47920833538355656  1.0000
  Cl  Cl1       1.0  0.4396211783493998  0.03654515241957609  0.16655743709250131  1.0000
  Cl  Cl2       1.0  0.5603788194437422  0.9634548480160449  0.8334425625208625  1.0000
  Cl  Cl3       1.0  0.47798729036498927  0.3883079592857079  0.8900052393285178  1.0000
  Cl  Cl4       1.0  0.5220127100674185  0.6116920406540658  0.10999476109517882  1.0000
