data_image0
_chemical_formula_structural       H48C48N12O8Cl4
_chemical_formula_sum              "H48 C48 N12 O8 Cl4"
_cell_length_a       16.84103170284807
_cell_length_b       5.286895348793856
_cell_length_c       13.654121563605578
_cell_angle_alpha    90.0
_cell_angle_beta     104.40607683493674
_cell_angle_gamma    90.0

_space_group_name_H-M_alt    "P 1"
_space_group_IT_number       1

loop_
  _space_group_symop_operation_xyz
  'x, y, z'

loop_
  _atom_site_type_symbol
  _atom_site_label
  _atom_site_symmetry_multiplicity
  _atom_site_fract_x
  _atom_site_fract_y
  _atom_site_fract_z
  _atom_site_occupancy
  H   H1        1.0  0.2557128477502705  0.06358864471881348  0.4072504403446444  1.0000
  H   H2        1.0  0.7442871525799425  0.563588643887148  0.09274955922005033  1.0000
  H   H3        1.0  0.7442871524627287  0.9364113555093249  0.5927495596146708  1.0000
  H   H4        1.0  0.2557128476330566  0.4364113563409903  0.907250440739265  1.0000
  H   H5        1.0  0.23891432602270976  0.22686903198748515  0.5128078998716478  1.0000
  H   H6        1.0  0.7610856740730755  0.726869033047289  0.987192100482288  1.0000
  H   H7        1.0  0.7610856741902893  0.7731309663491839  0.48719210008766756  1.0000
  H   H8        1.0  0.23891432554625786  0.27313096718084934  0.012807899477631288  1.0000
  H   H9        1.0  0.14857623908632905  0.595953842876577  0.4945223588393673  1.0000
  H   H10       1.0  0.8514237608032182  0.09595384181677326  0.0054776414820868775  1.0000
  H   H11       1.0  0.8514237612796701  0.4040461573515613  0.5054776418761033  1.0000
  H   H12       1.0  0.14857623881611493  0.904046158411365  0.9945223584778324  1.0000
  H   H13       1.0  0.05590199635501347  0.8828814648402076  0.3729517859436836  1.0000
  H   H14       1.0  0.9440980035345338  0.3828814637804037  0.1270482143777705  1.0000
  H   H15       1.0  0.9440980032643198  0.1171185353879308  0.6270482140162356  1.0000
  H   H16       1.0  0.0559019966784652  0.6171185345562653  0.8729517855815448  1.0000
  H   H17       1.0  0.03621584410480507  0.8178035056030356  0.18587726857033632  1.0000
  H   H18       1.0  0.963784155631742  0.3178035064347012  0.31412273099496246  1.0000
  H   H19       1.0  0.9637841561081939  0.18219649462510265  0.814122731388979  1.0000
  H   H20       1.0  0.03621584398759115  0.6821964937934372  0.6858772689649567  1.0000
  H   H21       1.0  0.21568115420517434  0.1277503213968639  0.2212044519737227  1.0000
  H   H22       1.0  0.784318845684373  0.6277503205651984  0.27879554834773146  1.0000
  H   H23       1.0  0.7843188455671591  0.8722496788312745  0.7787955487423519  1.0000
  H   H24       1.0  0.21568115452862605  0.3722496796629399  0.7212044516115839  1.0000
  H   H25       1.0  0.40699268302318187  0.24854811629660584  0.3763038672950959  1.0000
  H   H26       1.0  0.5930073168663655  0.7485481173564096  0.12369613302635822  1.0000
  H   H27       1.0  0.5930073171898173  0.7514518839315325  0.6236961326642193  1.0000
  H   H28       1.0  0.40699268275296774  0.2514518828717287  0.876303866933561  1.0000
  H   H29       1.0  0.3448616343458865  0.513443384238594  0.3769800405907154  1.0000
  H   H30       1.0  0.6551383653906606  0.013443385070259552  0.12301995897458343  1.0000
  H   H31       1.0  0.6551383652734468  0.486556614098075  0.6230199593692038  1.0000
  H   H32       1.0  0.3448616348223385  0.9865566151578788  0.8769800409847319  1.0000
  H   H33       1.0  0.4626877398308572  0.14662374207517637  0.23981755754543965  1.0000
  H   H34       1.0  0.5373122600586901  0.6466237431349802  0.26018244277601454  1.0000
  H   H35       1.0  0.5373122597884761  0.853376258152962  0.7601824424144796  1.0000
  H   H36       1.0  0.4626877401543089  0.3533762570931582  0.7398175571833008  1.0000
  H   H37       1.0  0.47661465207913944  0.2419524324974258  0.06935809947508706  1.0000
  H   H38       1.0  0.523385347810408  0.7419524316657603  0.43064190084636705  1.0000
  H   H39       1.0  0.5233853481338596  0.7580475677307125  0.9306419004842281  1.0000
  H   H40       1.0  0.4766146518089253  0.258047568562378  0.5693580991135522  1.0000
  H   H41       1.0  0.4067550803057087  0.6259120413183401  0.9763287933924182  1.0000
  H   H42       1.0  0.5932449196370763  0.12591204215000548  0.5236712062053622  1.0000
  H   H43       1.0  0.5932449193136246  0.37408795890979835  0.023671206567501116  1.0000
  H   H44       1.0  0.40675508057592286  0.8740879580781329  0.476328793753953  1.0000
  H   H45       1.0  0.3198028600202966  0.8909696673066618  0.05587449375359269  1.0000
  H   H46       1.0  0.6801971398692507  0.3909696681383273  0.4441255065678614  1.0000
  H   H47       1.0  0.6801971395990366  0.10903033292147653  0.9441255062063266  1.0000
  H   H48       1.0  0.31980286034374833  0.609030332089811  0.5558744933914538  1.0000
  C   C1        1.0  0.17929679772610385  0.3722666442506767  0.3755241562304581  1.0000
  C   C2        1.0  0.8207032021634435  0.8722666453104806  0.124475844090996  1.0000
  C   C3        1.0  0.8207032018932294  0.6277333559774616  0.6244758437294612  1.0000
  C   C4        1.0  0.17929679745588975  0.12773335491765783  0.8755241558689233  1.0000
  C   C5        1.0  0.13815709680721328  0.5693383756284686  0.4132240308750109  1.0000
  C   C6        1.0  0.861842903082334  0.06933837646013404  0.0867759694464432  1.0000
  C   C7        1.0  0.8618429034057857  0.4306616245996698  0.5867759690843043  1.0000
  C   C8        1.0  0.13815709653699915  0.9306616237680042  0.913224030513476  1.0000
  C   C9        1.0  0.08737858368116935  0.7287714879544576  0.3453768618394141  1.0000
  C   C10       1.0  0.9126214162083781  0.22877148689465382  0.15462313848204007  1.0000
  C   C11       1.0  0.9126214165318298  0.2712285122736807  0.6546231381199011  1.0000
  C   C12       1.0  0.0873785834109552  0.7712285114420152  0.845376861477879  1.0000
  C   C13       1.0  0.07536835485426654  0.6938296992840719  0.2408319288936867  1.0000
  C   C14       1.0  0.9246316450352808  0.19382969822426813  0.25916807142776743  1.0000
  C   C15       1.0  0.9246316453587325  0.3061703009440664  0.7591680710656286  1.0000
  C   C16       1.0  0.07536835458405243  0.8061703020038702  0.7408319285321519  1.0000
  C   C17       1.0  0.11665282876921126  0.4919076297951143  0.2116724580415795  1.0000
  C   C18       1.0  0.8833471709673358  0.9919076308549182  0.28832754152371937  1.0000
  C   C19       1.0  0.8833471714437877  0.5080923685415548  0.7883275419177357  1.0000
  C   C20       1.0  0.11665282865199739  0.00809236937322025  0.7116724584362  1.0000
  C   C21       1.0  0.38590468425657026  0.4690577978937584  0.24927086676209229  1.0000
  C   C22       1.0  0.6140953160736428  0.969057797062093  0.25072913280260256  1.0000
  C   C23       1.0  0.6140953159564289  0.5309422023343799  0.7507291331972231  1.0000
  C   C24       1.0  0.38590468413935636  0.030942203166045405  0.7492708671567128  1.0000
  C   C25       1.0  0.43191606632561097  0.3117998865583892  0.20000208724444155  1.0000
  C   C26       1.0  0.5680839334109362  0.811799887618193  0.29999791232085726  1.0000
  C   C27       1.0  0.5680839332937223  0.6882001136697491  0.7999979127154777  1.0000
  C   C28       1.0  0.43191606680206285  0.18820011260994535  0.700002087638458  1.0000
  C   C29       1.0  0.43970174063593315  0.36697912517648557  0.10388798565300701  1.0000
  C   C30       1.0  0.5602982592536142  0.86697912434482  0.3961120146684471  1.0000
  C   C31       1.0  0.5602982595770658  0.6330208750516527  0.8961120143063082  1.0000
  C   C32       1.0  0.439701740365719  0.13302087588331823  0.6038879852914721  1.0000
  C   C33       1.0  0.40086046839135137  0.5802009870877822  0.051783555365640214  1.0000
  C   C34       1.0  0.5991395313451957  0.08020098791944764  0.44821644419965867  1.0000
  C   C35       1.0  0.5991395312279818  0.41979901314035617  0.948216444594279  1.0000
  C   C36       1.0  0.4008604688678033  0.9197990123086907  0.5517835557596567  1.0000
  C   C37       1.0  0.35193224677511725  0.7290205887807678  0.09642313077867755  1.0000
  C   C38       1.0  0.6480677531144301  0.22902058961243327  0.4035768695427766  1.0000
  C   C39       1.0  0.648067752844216  0.27097941144737053  0.9035768691812418  1.0000
  C   C40       1.0  0.35193224709856896  0.7709794106157051  0.5964231304165387  1.0000
  C   C41       1.0  0.34294440710262636  0.678946533492271  0.19444875565302916  1.0000
  C   C42       1.0  0.6570555926339208  0.17894653432393648  0.3055512439122697  1.0000
  C   C43       1.0  0.6570555925167069  0.3210534667358673  0.8055512443068901  1.0000
  C   C44       1.0  0.3429444075790783  0.8210534659042019  0.6944487560470456  1.0000
  C   C45       1.0  0.2918110046175865  0.842879946737859  0.24044836171415374  1.0000
  C   C46       1.0  0.7081889957126265  0.3428799456780552  0.25955163785054103  1.0000
  C   C47       1.0  0.7081889955954125  0.15712005349027938  0.7595516382451615  1.0000
  C   C48       1.0  0.2918110045003726  0.657120052658614  0.7404483621087741  1.0000
  N   N1        1.0  0.16682735979546623  0.3343698415372073  0.27416671090268635  1.0000
  N   N2        1.0  0.8331726399410809  0.8343698425970111  0.22583328866261246  1.0000
  N   N3        1.0  0.833172639823867  0.6656301586909311  0.7258332890572329  1.0000
  N   N4        1.0  0.16682736027191813  0.16563015763112726  0.7741667112967028  1.0000
  N   N5        1.0  0.23363412590308377  0.21887204373432342  0.4373628484262502  1.0000
  N   N6        1.0  0.7663658738334633  0.7188720447941273  0.06263715113904864  1.0000
  N   N7        1.0  0.7663658743099152  0.7811279546023456  0.562637151533065  1.0000
  N   N8        1.0  0.23363412578586987  0.28112795543401115  0.9373628488208706  1.0000
  N   N9        1.0  0.38576394767911587  0.4184922821490616  0.34697575230040106  1.0000
  N   N10       1.0  0.6142360522104315  0.9184922832088654  0.15302424802105308  1.0000
  N   N11       1.0  0.6142360525338831  0.5815077180790768  0.6530242476589142  1.0000
  N   N12       1.0  0.3857639474089018  0.08150771701927295  0.8469757519388662  1.0000
  O   O1        1.0  0.24678902587723262  0.015766236042295854  0.17999238006732216  1.0000
  O   O2        1.0  0.7532109740123146  0.5157662371020997  0.32000762025413193  1.0000
  O   O3        1.0  0.7532109743357664  0.9842337622943733  0.8200076198919931  1.0000
  O   O4        1.0  0.2467890257600187  0.4842337631260387  0.6799923804619427  1.0000
  O   O5        1.0  0.29022042537622256  0.8234612476286697  0.33131430320812716  1.0000
  O   O6        1.0  0.7097795743603246  0.3234612484603352  0.16868569635717165  1.0000
  O   O7        1.0  0.7097795742431107  0.17653875259946863  0.6686856967517921  1.0000
  O   O8        1.0  0.29022042585267455  0.6765387517678031  0.8313143036021435  1.0000
  Cl  Cl1       1.0  0.1026562604669398  0.4295417877938683  0.08326994164060823  1.0000
  Cl  Cl2       1.0  0.8973437394226076  0.9295417888536721  0.41673005868084584  1.0000
  Cl  Cl3       1.0  0.8973437397460592  0.5704582105428008  0.916730058318707  1.0000
  Cl  Cl4       1.0  0.10265626019672569  0.07045821137446624  0.5832699412790734  1.0000
