data_image0
_chemical_formula_structural       H40C62N4O18Cl20
_chemical_formula_sum              "H40 C62 N4 O18 Cl20"
_cell_length_a       9.536594368808334
_cell_length_b       10.399909986916711
_cell_length_c       18.511035889790033
_cell_angle_alpha    81.46756499752233
_cell_angle_beta     76.78139200077233
_cell_angle_gamma    72.53497566425784

_space_group_name_H-M_alt    "P 1"
_space_group_IT_number       1

loop_
  _space_group_symop_operation_xyz
  'x, y, z'

loop_
  _atom_site_type_symbol
  _atom_site_label
  _atom_site_symmetry_multiplicity
  _atom_site_fract_x
  _atom_site_fract_y
  _atom_site_fract_z
  _atom_site_occupancy
  H   H1        1.0  0.4388137909552707  0.8643516858475486  0.2461183715709296  1.0000
  H   H2        1.0  0.5611862090848362  0.135648314336226  0.75388162842942  1.0000
  H   H3        1.0  0.09502121190932278  0.16832786947248443  0.3729663451826117  1.0000
  H   H4        1.0  0.9049787881307839  0.8316721307112901  0.6270336548177379  1.0000
  H   H5        1.0  0.9984618390996408  0.26241510960914505  0.253525153975456  1.0000
  H   H6        1.0  0.0015381609404660332  0.7375848905746295  0.7464748460248936  1.0000
  H   H7        1.0  0.12642217883837098  0.14624098235049499  0.13777088570857252  1.0000
  H   H8        1.0  0.8735778201511405  0.8537590178341199  0.8622291142957321  1.0000
  H   H9        1.0  0.32806774503169767  0.0014463275270662531  0.07366519214521154  1.0000
  H   H10       1.0  0.6719322550084091  0.9985536726567082  0.926334807855138  1.0000
  H   H11       1.0  0.2934750469595516  0.8484097231548651  0.12441549069225294  1.0000
  H   H12       1.0  0.7065249530805551  0.15159027702890948  0.8755845093080967  1.0000
  H   H13       1.0  0.4681691446801765  0.8826462657086797  0.12005707981960928  1.0000
  H   H14       1.0  0.531830854637148  0.11735373346768321  0.8799429201862393  1.0000
  H   H15       1.0  0.6419136465800772  0.7275550138463007  0.41198829625245525  1.0000
  H   H16       1.0  0.3580863534600297  0.2724449863374738  0.5880117037478944  1.0000
  H   H17       1.0  0.4577033625728725  0.7343125218111527  0.4675284876480316  1.0000
  H   H18       1.0  0.5422966374672342  0.26568747837262185  0.532471512352318  1.0000
  H   H19       1.0  0.5440266579172707  0.8616698060695179  0.47234089716706995  1.0000
  H   H20       1.0  0.4559733424506491  0.13833019310600447  0.5276591028348236  1.0000
  H   H21       1.0  0.7140052424221998  0.04240622949247545  0.1911406890278809  1.0000
  H   H22       1.0  0.28599475761790705  0.9575937706912991  0.8088593109724687  1.0000
  H   H23       1.0  0.36863416747055877  0.33569836856586294  0.3239325182732887  1.0000
  H   H24       1.0  0.631365832569548  0.6643016316179117  0.6760674817270608  1.0000
  H   H25       1.0  0.2564346244483116  0.4243737092794355  0.20815935001700636  1.0000
  H   H26       1.0  0.743565375591795  0.575626290904339  0.7918406499833432  1.0000
  H   H27       1.0  0.3846739949282109  0.31597602551953846  0.08970070846741275  1.0000
  H   H28       1.0  0.6153260051118961  0.6840239746642359  0.9102992915329368  1.0000
  H   H29       1.0  0.5456611387951555  0.14389630745154217  0.030479082278138395  1.0000
  H   H30       1.0  0.4543388612449514  0.8561036927322322  0.969520917722211  1.0000
  H   H31       1.0  0.6758578079870834  0.012252478027610652  0.07675645822837501  1.0000
  H   H32       1.0  0.32414219205302347  0.9877475221561637  0.9232435417719745  1.0000
  H   H33       1.0  0.7192584671958774  0.1681443940307134  0.03989316360562717  1.0000
  H   H34       1.0  0.28074153284422937  0.8318556061530611  0.9601068363947225  1.0000
  H   H35       1.0  0.9352011715835238  0.9132853392531362  0.35372353342824026  1.0000
  H   H36       1.0  0.06479882845658293  0.08671466093063847  0.6462764665721092  1.0000
  H   H37       1.0  0.7634449379219878  0.929493497019872  0.4220590192266111  1.0000
  H   H38       1.0  0.23655506244593205  0.07050650215565055  0.5779409807752826  1.0000
  H   H39       1.0  0.8474985820548193  0.06466538090270195  0.4024576893622365  1.0000
  H   H40       1.0  0.15250141798528727  0.9353346192810728  0.597542310638113  1.0000
  C   C1        1.0  0.9719091627678214  0.5344532055299506  0.3060112045405734  1.0000
  C   C2        1.0  0.02809083727228533  0.4655467946538239  0.6939887954597762  1.0000
  C   C3        1.0  0.010174590225802015  0.6558536340861009  0.2664956786931329  1.0000
  C   C4        1.0  0.9898254098143048  0.34414636609767374  0.7335043213072168  1.0000
  C   C5        1.0  0.9197342668961905  0.747777678897516  0.22317370099055028  1.0000
  C   C6        1.0  0.08026573314391616  0.25222232128625843  0.7768262990097994  1.0000
  C   C7        1.0  0.775149558683175  0.7350942325447631  0.21587030546871555  1.0000
  C   C8        1.0  0.2248504413569318  0.26490576763901147  0.784129694531634  1.0000
  C   C9        1.0  0.7307981042870068  0.620844780539777  0.2611329718955615  1.0000
  C   C10       1.0  0.26920189608091283  0.37915521863574564  0.7388670281063322  1.0000
  C   C11       1.0  0.8217745885737239  0.5280375701312059  0.303990214909246  1.0000
  C   C12       1.0  0.1782254117941959  0.4719624290443168  0.6960097850926477  1.0000
  C   C13       1.0  0.9709532759519782  0.5171225619790293  0.11482241861635815  1.0000
  C   C14       1.0  0.029046724088128625  0.48287743820474516  0.8851775813839914  1.0000
  C   C15       1.0  0.011339991330020541  0.6335127487135324  0.07052119563572315  1.0000
  C   C16       1.0  0.9886600087100863  0.36648725147024225  0.9294788043646263  1.0000
  C   C17       1.0  0.9150714965287005  0.7280004773624009  0.031085727600859748  1.0000
  C   C18       1.0  0.08492850246081107  0.2719995228222139  0.9689142724034447  1.0000
  C   C19       1.0  0.7672887190177101  0.71756785627703  0.028841386069233005  1.0000
  C   C20       1.0  0.2327112799718014  0.2824321439075848  0.9711586139350715  1.0000
  C   C21       1.0  0.7297385868112686  0.5977076602842452  0.06986513576386394  1.0000
  C   C22       1.0  0.2702614132288383  0.4022923398995294  0.9301348642364856  1.0000
  C   C23       1.0  0.8256284164027394  0.5032773442596234  0.1095565115242317  1.0000
  C   C24       1.0  0.1743715836373673  0.4967226559241511  0.8904434884761178  1.0000
  C   C25       1.0  0.11600823020220954  0.3762770487176614  0.4793762478704081  1.0000
  C   C26       1.0  0.8839917701657102  0.6237229504578612  0.5206237521314855  1.0000
  C   C27       1.0  0.15140444157261718  0.507469985122454  0.47300650358009505  1.0000
  C   C28       1.0  0.8485955584674898  0.4925300150613206  0.5269934964202545  1.0000
  C   C29       1.0  0.9567605534674954  0.3774099874057735  0.5073046367178148  1.0000
  C   C30       1.0  0.043239446900424396  0.6225900117697492  0.49269536328407876  1.0000
  C   C31       1.0  0.3392998036711126  0.9502351590318752  0.2520454785387791  1.0000
  C   C32       1.0  0.6607001966968072  0.04976484014364734  0.7479545214631145  1.0000
  C   C33       1.0  0.2722614963688609  0.00873482867603432  0.3186589639586141  1.0000
  C   C34       1.0  0.7277385036712458  0.9912651715077403  0.6813410360417355  1.0000
  C   C35       1.0  0.14587387955670605  0.12066632939333768  0.32107658675623973  1.0000
  C   C36       1.0  0.8541261204834005  0.8793336707904369  0.6789234132441098  1.0000
  C   C37       1.0  0.09163971125096348  0.17190781880383796  0.2558738411990784  1.0000
  C   C38       1.0  0.9083602887891434  0.8280921813799366  0.7441261588012712  1.0000
  C   C39       1.0  0.16136022702331398  0.10981772068217625  0.19082593034128933  1.0000
  C   C40       1.0  0.8386397730167927  0.8901822795015983  0.8091740696590604  1.0000
  C   C41       1.0  0.34820228712870005  0.9283582914450801  0.12184168427898713  1.0000
  C   C42       1.0  0.6517977129114068  0.07164170873869427  0.8781583157213625  1.0000
  C   C43       1.0  0.3313991912733265  0.9496762896241124  0.3879343765393501  1.0000
  C   C44       1.0  0.6686008087667803  0.050323710559662116  0.6120656234609995  1.0000
  C   C45       1.0  0.5329169806270234  0.793285044361494  0.43576451158703544  1.0000
  C   C46       1.0  0.46708301941308356  0.20671495582228044  0.5642354884133141  1.0000
  C   C47       1.0  0.6158635747487187  0.12924557844758358  0.19815875870404379  1.0000
  C   C48       1.0  0.3841364256192009  0.8707544207279391  0.80184124129785  1.0000
  C   C49       1.0  0.5521347999835065  0.18576730986136072  0.2655271162336211  1.0000
  C   C50       1.0  0.4478652000566006  0.8142326903224136  0.7344728837667285  1.0000
  C   C51       1.0  0.4214857919143657  0.2938400006023403  0.2705321507355807  1.0000
  C   C52       1.0  0.5785142074029587  0.7061599985740227  0.729467849270268  1.0000
  C   C53       1.0  0.3599999480644152  0.34333898174730576  0.20717040174756346  1.0000
  C   C54       1.0  0.6400000519756915  0.6566610184364688  0.7928295982527861  1.0000
  C   C55       1.0  0.4286036774731385  0.28501645159407524  0.14083004399825233  1.0000
  C   C56       1.0  0.5713963225669683  0.7149835485896993  0.8591699560020972  1.0000
  C   C57       1.0  0.6289401418608106  0.1213532315505067  0.06593622046845142  1.0000
  C   C58       1.0  0.3710598581792962  0.8786467686332676  0.9340637795318982  1.0000
  C   C59       1.0  0.6208574534077821  0.13310165590616715  0.33279724203513444  1.0000
  C   C60       1.0  0.3791425469601377  0.8668983432693553  0.6672027579667591  1.0000
  C   C61       1.0  0.8292468521230404  0.9825150862315611  0.3782009516588171  1.0000
  C   C62       1.0  0.17075314791706642  0.01748491395221333  0.6217990483415325  1.0000
  N   N1        1.0  0.2820989832492763  0.999885729738184  0.19002208993462044  1.0000
  N   N2        1.0  0.7179010171186435  0.00011426943733857172  0.8099779100672732  1.0000
  N   N3        1.0  0.5541155181443678  0.17950385819347628  0.13744377883654024  1.0000
  N   N4        1.0  0.44588448189573904  0.8204961419902983  0.8625562211638094  1.0000
  O   O1        1.0  0.05954570262390623  0.44505429133705504  0.34065090908850043  1.0000
  O   O2        1.0  0.9404542965778427  0.554945708931652  0.659349090358842  1.0000
  O   O3        1.0  0.6924155614783165  0.8194154620092093  0.17593018283552098  1.0000
  O   O4        1.0  0.3075844385617902  0.1805845381745652  0.8240698171648286  1.0000
  O   O5        1.0  0.05612182174894435  0.4331686613065857  0.15319104317788887  1.0000
  O   O6        1.0  0.9438781782911625  0.5668313388771888  0.8468089568224607  1.0000
  O   O7        1.0  0.6812520953875609  0.8029765679601796  0.9908062363231978  1.0000
  O   O8        1.0  0.31874790465254593  0.19702343222359486  0.009193763677151802  1.0000
  O   O9        1.0  0.2144554029183626  0.27061890923153015  0.46431556070974034  1.0000
  O   O10       1.0  0.7855445974495571  0.7293810899439925  0.5356844392921533  1.0000
  O   O11       1.0  0.25784545601061104  0.9709214752119338  0.45025977763220637  1.0000
  O   O12       1.0  0.742154544029496  0.02907852497184065  0.549740222368143  1.0000
  O   O13       1.0  0.47223832656565085  0.8689029576187939  0.3719090169433002  1.0000
  O   O14       1.0  0.5277616734744559  0.13109704256498061  0.6280909830570494  1.0000
  O   O15       1.0  0.5648281214533554  0.1755203770254425  0.3937767618846696  1.0000
  O   O16       1.0  0.43517187891456427  0.8244796221500802  0.6062232381172241  1.0000
  O   O17       1.0  0.7513847446981661  0.03679719480224653  0.31675427659286703  1.0000
  O   O18       1.0  0.24861525534194065  0.963202805381528  0.6832457234074826  1.0000
  Cl  Cl1       1.0  0.1753021320302012  0.6777480316504797  0.27791532629856774  1.0000
  Cl  Cl2       1.0  0.8246978680099056  0.32225196853329485  0.7220846737017819  1.0000
  Cl  Cl3       1.0  0.9699322418427934  0.8882990911561593  0.17684249016450276  1.0000
  Cl  Cl4       1.0  0.030067758197313547  0.11170090902761516  0.8231575098358467  1.0000
  Cl  Cl5       1.0  0.5550231880604485  0.6092290595182878  0.26098212378000896  1.0000
  Cl  Cl6       1.0  0.44497681197965855  0.3907709406654868  0.7390178762203407  1.0000
  Cl  Cl7       1.0  0.7626421628720713  0.39868318986193657  0.35864549605162105  1.0000
  Cl  Cl8       1.0  0.2373578371680354  0.6013168103218379  0.6413545039487285  1.0000
  Cl  Cl9       1.0  0.18940172381543197  0.6415377374967101  0.06787449638078513  1.0000
  Cl  Cl10      1.0  0.8105982762246748  0.3584622626870645  0.9321255036195645  1.0000
  Cl  Cl11      1.0  0.9639956906732523  0.8664817488746419  0.9812853890640917  1.0000
  Cl  Cl12      1.0  0.036004309366854476  0.13351825130913253  0.018714610936257817  1.0000
  Cl  Cl13      1.0  0.5595504284591112  0.5785234462836834  0.06450637338130226  1.0000
  Cl  Cl14      1.0  0.44044957190880873  0.4214765528918392  0.9354936266205914  1.0000
  Cl  Cl15      1.0  0.7846007397019139  0.35846913243530387  0.1539513110629557  1.0000
  Cl  Cl16      1.0  0.21539926033819282  0.6415308677484706  0.8460486889373939  1.0000
  Cl  Cl17      1.0  0.3352359611646716  0.502771697884471  0.44154072530115834  1.0000
  Cl  Cl18      1.0  0.6647640388754352  0.4972283022993034  0.5584592746991912  1.0000
  Cl  Cl19      1.0  0.9189583909705753  0.22559180744778007  0.5148174282793082  1.0000
  Cl  Cl20      1.0  0.0810416080189362  0.7744081927368347  0.4851825717249964  1.0000
