data_image0
_chemical_formula_structural       H42C80N18I2
_chemical_formula_sum              "H42 C80 N18 I2"
_cell_length_a       8.319968128724556
_cell_length_b       13.141709150264276
_cell_length_c       16.0908486771398
_cell_angle_alpha    83.12132926318864
_cell_angle_beta     74.85905883186655
_cell_angle_gamma    71.38796982592038

_space_group_name_H-M_alt    "P 1"
_space_group_IT_number       1

loop_
  _space_group_symop_operation_xyz
  'x, y, z'

loop_
  _atom_site_type_symbol
  _atom_site_label
  _atom_site_symmetry_multiplicity
  _atom_site_fract_x
  _atom_site_fract_y
  _atom_site_fract_z
  _atom_site_occupancy
  H   H1        1.0  0.3047099646313254  0.43803420811399657  0.3866520598022136  1.0000
  H   H2        1.0  0.6952900355092158  0.5619657919402277  0.6133479401371502  1.0000
  H   H3        1.0  0.4336680556622983  0.4106389056366463  0.5102608181944883  1.0000
  H   H4        1.0  0.5663319444782426  0.5893610944175779  0.4897391817448755  1.0000
  H   H5        1.0  0.002601395795166879  0.30294623383624525  0.6676465470706753  1.0000
  H   H6        1.0  0.9973986043453742  0.6970537662179789  0.3323534528686885  1.0000
  H   H7        1.0  0.8723840274255696  0.33095763183225196  0.5438729922286083  1.0000
  H   H8        1.0  0.1276159727149713  0.6690423682219724  0.45612700771075554  1.0000
  H   H9        1.0  0.6829818478029274  0.9448499755831838  0.28471374019806767  1.0000
  H   H10       1.0  0.3170181523376138  0.05515002447104044  0.715286259741296  1.0000
  H   H11       1.0  0.8102660659443705  0.9188024489558069  0.4087849829956195  1.0000
  H   H12       1.0  0.1897339341961706  0.08119755109841749  0.5912150169437442  1.0000
  H   H13       1.0  0.36501185407289516  0.8251869321097035  0.567727939459651  1.0000
  H   H14       1.0  0.6349881460676458  0.1748130679445208  0.4322720604797127  1.0000
  H   H15       1.0  0.23455898773025557  0.8560043131293935  0.4444030820667055  1.0000
  H   H16       1.0  0.7654410124102854  0.14399568692483078  0.5555969178726584  1.0000
  H   H17       1.0  0.09331915059708297  0.1196313445327367  0.985065185032061  1.0000
  H   H18       1.0  0.9066808495434581  0.8803686555214877  0.01493481490730283  1.0000
  H   H19       1.0  0.31311359118561277  0.21042031953419027  0.9697677534125504  1.0000
  H   H20       1.0  0.6868864089549285  0.789579680520034  0.03023224652681349  1.0000
  H   H21       1.0  0.18653867780872455  0.2368931248705799  0.2459429041616453  1.0000
  H   H22       1.0  0.8134613223318166  0.7631068751836444  0.7540570957777184  1.0000
  H   H23       1.0  0.9671037988475618  0.14167907212393496  0.2621387899023771  1.0000
  H   H24       1.0  0.032896201292979155  0.8583209279302892  0.7378612100369867  1.0000
  H   H25       1.0  0.3618972948622907  0.3517880100636945  0.13981731256619492  1.0000
  H   H26       1.0  0.6381027052782503  0.6482119899905299  0.8601826873731688  1.0000
  H   H27       1.0  0.5145615869153908  0.2229689169992769  0.12861333560360014  1.0000
  H   H28       1.0  0.48543841322515024  0.7770310830549474  0.8713866643357637  1.0000
  H   H29       1.0  0.6888643413782926  0.1644064843466355  0.009867056576267354  1.0000
  H   H30       1.0  0.3111356587622486  0.8355935157075887  0.9901329433630964  1.0000
  H   H31       1.0  0.8498332596511047  0.1982184998340363  0.8593967066153855  1.0000
  H   H32       1.0  0.15016674048943623  0.8017815002201879  0.14060329332397836  1.0000
  H   H33       1.0  0.7233156607097243  0.3697333700412111  0.7795546692965736  1.0000
  H   H34       1.0  0.2766843394308167  0.6302666300130133  0.2204453306427903  1.0000
  H   H35       1.0  0.4860896409229375  0.5395595291784796  0.7765297726781683  1.0000
  H   H36       1.0  0.5139103589159444  0.4604404708339811  0.22347022790547716  1.0000
  H   H37       1.0  0.2053452395082105  0.6665175664501919  0.8498754497996559  1.0000
  H   H38       1.0  0.7946547610320657  0.33348243280157464  0.15012455013186415  1.0000
  H   H39       1.0  0.05973080621465134  0.6246117677930151  0.0006330543415190577  1.0000
  H   H40       1.0  0.9402691939258898  0.3753882322612092  0.9993669455978447  1.0000
  H   H41       1.0  0.18906657844570574  0.45960993245138465  0.07867200178846522  1.0000
  H   H42       1.0  0.8109334220945702  0.5403900668003818  0.9213279981430549  1.0000
  C   C1        1.0  0.08298055761354199  0.4386747998600037  0.30218317685151375  1.0000
  C   C2        1.0  0.917019442526999  0.5613252001942206  0.6978168230878501  1.0000
  C   C3        1.0  0.8453194048174179  0.3793629074911077  0.38774583098927123  1.0000
  C   C4        1.0  0.1546805953231231  0.6206370925631166  0.6122541689500925  1.0000
  C   C5        1.0  0.0034471468563407955  0.4010735666566734  0.3833851081144469  1.0000
  C   C6        1.0  0.9965528532842003  0.598926433397551  0.6166148918249168  1.0000
  C   C7        1.0  0.07844979000277003  0.38594584217398187  0.45503836994325936  1.0000
  C   C8        1.0  0.9215502101377713  0.6140541578802423  0.5449616299961043  1.0000
  C   C9        1.0  0.23863347955412145  0.40889944105186793  0.44807879045545523  1.0000
  C   C10       1.0  0.7613665205864194  0.5911005590023565  0.5519212094839087  1.0000
  C   C11       1.0  0.3103877930890077  0.3941918643060492  0.5175901324642752  1.0000
  C   C12       1.0  0.6896122070515334  0.605808135748175  0.48240986747508846  1.0000
  C   C13       1.0  0.22631590241794144  0.35710154875257494  0.599616690930846  1.0000
  C   C14       1.0  0.7736840977225995  0.6428984513016492  0.40038330900851793  1.0000
  C   C15       1.0  0.06664909594226275  0.3336510308193321  0.6064085741382448  1.0000
  C   C16       1.0  0.9333509041982784  0.6663489692348921  0.393591425801119  1.0000
  C   C17       1.0  0.995029372666033  0.3480574197738796  0.5368565093000002  1.0000
  C   C18       1.0  0.004970627474507986  0.6519425802803448  0.46314349063936355  1.0000
  C   C19       1.0  0.3010043150104712  0.34247756333906304  0.6713367162370272  1.0000
  C   C20       1.0  0.6989956848284108  0.6575224366733977  0.32866328434661823  1.0000
  C   C21       1.0  0.2212951200992666  0.3083163850932797  0.7542000735031509  1.0000
  C   C22       1.0  0.7787048800412742  0.6916836149609447  0.24579992643621296  1.0000
  C   C23       1.0  0.4610076662256544  0.36299779207641847  0.6637448506424304  1.0000
  C   C24       1.0  0.5389923339148865  0.6370022079778059  0.3362551492969334  1.0000
  C   C25       1.0  0.2120506387807874  0.8971169887501895  0.29016156441696705  1.0000
  C   C26       1.0  0.7879493613597538  0.10288301130403464  0.7098384355223967  1.0000
  C   C27       1.0  0.4539166152992366  0.9472891509257926  0.19922808064886277  1.0000
  C   C28       1.0  0.5460833852410396  0.05271084832597375  0.8007719192826573  1.0000
  C   C29       1.0  0.3730947504927581  0.9163198686424016  0.282669012018272  1.0000
  C   C30       1.0  0.6269052496477828  0.08368013141182272  0.7173309879210918  1.0000
  C   C31       1.0  0.4489160501762374  0.9018090780216312  0.3540407240944226  1.0000
  C   C32       1.0  0.5510839487587366  0.09819092203834946  0.6459592758464705  1.0000
  C   C33       1.0  0.6130618107941301  0.9196692748717774  0.34675635449053105  1.0000
  C   C34       1.0  0.3869381893464109  0.08033072518244687  0.6532436454488327  1.0000
  C   C35       1.0  0.6845883644110435  0.9053061115414557  0.41638988438352736  1.0000
  C   C36       1.0  0.3154116354278386  0.09469388847100488  0.583610116200118  1.0000
  C   C37       1.0  0.5974258714656889  0.8706333689186357  0.4985210550416361  1.0000
  C   C38       1.0  0.40257412867485204  0.12936663113558874  0.5014789448977278  1.0000
  C   C39       1.0  0.43295905137242185  0.8525661996431507  0.5059912349929808  1.0000
  C   C40       1.0  0.5670409487681193  0.14743380041107346  0.49400876494638307  1.0000
  C   C41       1.0  0.3610916794396453  0.8683110089445777  0.43660266822276744  1.0000
  C   C42       1.0  0.6389083207008955  0.1316889911096466  0.5633973317165963  1.0000
  C   C43       1.0  0.6698852230795886  0.8531119564179593  0.5708215335650093  1.0000
  C   C44       1.0  0.3301147770609524  0.14688804363626493  0.4291784663743545  1.0000
  C   C45       1.0  0.583970384787728  0.814068308298147  0.6500553280697511  1.0000
  C   C46       1.0  0.4160296153528129  0.18593169175607716  0.3499446718696127  1.0000
  C   C47       1.0  0.830080453012707  0.8704645274135195  0.5691986240589602  1.0000
  C   C48       1.0  0.16991954712783372  0.12953547264070486  0.43080137588040357  1.0000
  C   C49       1.0  0.019686411722548366  0.12278975460089793  0.12436018672609084  1.0000
  C   C50       1.0  0.9803135884179927  0.8772102454533264  0.8756398132132729  1.0000
  C   C51       1.0  0.11361552255088722  0.1446860957731013  0.042611846103481156  1.0000
  C   C52       1.0  0.8863844775896538  0.855313904281123  0.9573881538358827  1.0000
  C   C53       1.0  0.2384022891517749  0.19740057053598456  0.03439309760693592  1.0000
  C   C54       1.0  0.7615977109887662  0.8025994295182396  0.9656069023324279  1.0000
  C   C55       1.0  0.26715345996597617  0.23001248500042712  0.10720848590421846  1.0000
  C   C56       1.0  0.7328465405742999  0.7699875142513393  0.8927915140273016  1.0000
  C   C57       1.0  0.16619296426576216  0.21102446536033653  0.1887645940572861  1.0000
  C   C58       1.0  0.8338070346692117  0.7889755346996441  0.8112354058836071  1.0000
  C   C59       1.0  0.04288026276185427  0.15687833386337668  0.19825973168899536  1.0000
  C   C60       1.0  0.9571197373786867  0.8431216661908476  0.8017402682503684  1.0000
  C   C61       1.0  0.4100094588721461  0.2796695424378466  0.10171655599477328  1.0000
  C   C62       1.0  0.589990541366471  0.7203304567721561  0.8982834445810284  1.0000
  C   C63       1.0  0.6404501426379855  0.23735419744717143  0.9723001406882575  1.0000
  C   C64       1.0  0.3595498575025556  0.7626458026070527  0.027699859251106306  1.0000
  C   C65       1.0  0.7281928374501951  0.25708459355366226  0.8885509355578035  1.0000
  C   C66       1.0  0.2718071626903458  0.7429154065005619  0.11144906438156033  1.0000
  C   C67       1.0  0.6583816118820528  0.3512374734493125  0.8449866333085989  1.0000
  C   C68       1.0  0.34161838825848817  0.6487625266049117  0.15501336663076487  1.0000
  C   C69       1.0  0.49919850392782  0.42541444102438764  0.8850233734591301  1.0000
  C   C70       1.0  0.5008014962127211  0.5745855590298367  0.11497662648023373  1.0000
  C   C71       1.0  0.420879301451317  0.5223818901501653  0.8422427897882895  1.0000
  C   C72       1.0  0.579120697483657  0.47761810990981524  0.15775721015260355  1.0000
  C   C73       1.0  0.2650486324766118  0.5924702178807751  0.8831442276764181  1.0000
  C   C74       1.0  0.7349513664583621  0.40752978217920544  0.11685577226447508  1.0000
  C   C75       1.0  0.18248426154376626  0.5685668502824397  0.9685338791377809  1.0000
  C   C76       1.0  0.8175157385967747  0.43143314977178454  0.031466120801582974  1.0000
  C   C77       1.0  0.2546325280184702  0.47528656979106076  0.012725600926034338  1.0000
  C   C78       1.0  0.7453674721220708  0.5247134302631635  0.9872743990133295  1.0000
  C   C79       1.0  0.41362440464289285  0.4026197827968689  0.9714705600509025  1.0000
  C   C80       1.0  0.5863755954976483  0.5973802172573555  0.02852943988846135  1.0000
  N   N1        1.0  0.7135507723123053  0.3633358722367332  0.38994429898636385  1.0000
  N   N2        1.0  0.28644922782823573  0.636664127817491  0.6100557009529999  1.0000
  N   N3        1.0  0.14756561839622637  0.46968875272811383  0.23437124488691546  1.0000
  N   N4        1.0  0.8524343817443145  0.5303112473261105  0.7656287550524484  1.0000
  N   N5        1.0  0.5946515207202759  0.3789453011250335  0.6570532761660363  1.0000
  N   N6        1.0  0.40534847821469794  0.621054698934947  0.3429467237748569  1.0000
  N   N7        1.0  0.15791535190282904  0.2796736076604271  0.8232361999713895  1.0000
  N   N8        1.0  0.842084648237712  0.7203263923937974  0.1767637999679743  1.0000
  N   N9        1.0  0.08025412873997978  0.879808313888536  0.294700075020549  1.0000
  N   N10       1.0  0.9197458714005612  0.12019168616568818  0.7052999249188149  1.0000
  N   N11       1.0  0.5198438319542575  0.9722926557082271  0.12943513593246006  1.0000
  N   N12       1.0  0.4801561681862834  0.027707344345997132  0.8705648640069038  1.0000
  N   N13       1.0  0.5121674946500941  0.7795907434696153  0.7143842840517226  1.0000
  N   N14       1.0  0.4878325042848799  0.22040925659036528  0.28561571588917056  1.0000
  N   N15       1.0  0.9625263557954495  0.8833046628275582  0.5703499259051055  1.0000
  N   N16       1.0  0.037473644345091636  0.11669533722666617  0.42965007403425837  1.0000
  N   N17       1.0  0.49170772886427155  0.30774128606061607  0.012561527502498549  1.0000
  N   N18       1.0  0.5082922712762695  0.692258713993608  0.9874384724368652  1.0000
  I   I1        1.0  0.8402775210161819  0.037631009926025624  0.13458568181281197  1.0000
  I   I2        1.0  0.15972247912435933  0.9623689901281988  0.8654143181265518  1.0000
