data_image0
_chemical_formula_structural       H112C80N8O24
_chemical_formula_sum              "H112 C80 N8 O24"
_cell_length_a       5.193675524037718
_cell_length_b       49.99514915540198
_cell_length_c       7.503551283777341
_cell_angle_alpha    90.0
_cell_angle_beta     104.41554344346481
_cell_angle_gamma    90.0

_space_group_name_H-M_alt    "P 1"
_space_group_IT_number       1

loop_
  _space_group_symop_operation_xyz
  'x, y, z'

loop_
  _atom_site_type_symbol
  _atom_site_label
  _atom_site_symmetry_multiplicity
  _atom_site_fract_x
  _atom_site_fract_y
  _atom_site_fract_z
  _atom_site_occupancy
  H   H1        1.0  0.7793924281719763  0.12915948245155467  0.45580742770348487  1.0000
  H   H2        1.0  0.22060757168864487  0.6291594824975393  0.04419257118343471  1.0000
  H   H3        1.0  0.22060757090984784  0.8708405174403951  0.5441925711018957  1.0000
  H   H4        1.0  0.7793924273931792  0.37084051759443  0.9558074276219458  1.0000
  H   H5        1.0  0.16186715495184217  0.10166609872891641  0.625336410835581  1.0000
  H   H6        1.0  0.8381328453391945  0.6016660987749011  0.8746635882303088  1.0000
  H   H7        1.0  0.8381328461179918  0.8983339013630528  0.37466358831184765  1.0000
  H   H8        1.0  0.1618671537434007  0.3983339013170682  0.125336411907907  1.0000
  H   H9        1.0  0.7469276348925598  0.08000457439515042  0.44008014381738836  1.0000
  H   H10       1.0  0.25307236496883256  0.5800045744411351  0.0599198564023663  1.0000
  H   H11       1.0  0.25307236419003554  0.9199954254967995  0.5599198563208273  1.0000
  H   H12       1.0  0.7469276361017724  0.4199954256508342  0.9400801440778975  1.0000
  H   H13       1.0  0.6386491297713796  0.1280092410587097  0.6482810972908913  1.0000
  H   H14       1.0  0.3613508705204284  0.6280092411046944  0.8517189031078333  1.0000
  H   H15       1.0  0.36135086931121574  0.8719907590332595  0.3517189028473242  1.0000
  H   H16       1.0  0.6386491305501767  0.3719907589872749  0.1482810973724305  1.0000
  H   H17       1.0  0.10099298546514526  0.04831287536500958  0.5977514146136896  1.0000
  H   H18       1.0  0.8990070148266627  0.5483128754109943  0.9022485857850353  1.0000
  H   H19       1.0  0.8990070156054597  0.9516871247269597  0.4022485858665743  1.0000
  H   H20       1.0  0.1009929842559326  0.45168712468097505  0.09775141435318037  1.0000
  H   H21       1.0  0.16339017502522896  0.155955790546082  0.6404946919733101  1.0000
  H   H22       1.0  0.836609825266579  0.6559557905920665  0.8595053084254147  1.0000
  H   H23       1.0  0.8366098240573663  0.8440442095458872  0.35950530816490556  1.0000
  H   H24       1.0  0.16339017580402604  0.3440442094999026  0.14049469205484916  1.0000
  H   H25       1.0  0.6118745979056127  0.08030939616801143  0.634575603692441  1.0000
  H   H26       1.0  0.3881254023861952  0.5803093962139961  0.8654243967062839  1.0000
  H   H27       1.0  0.3881254011769826  0.9196906039239579  0.36542439644577474  1.0000
  H   H28       1.0  0.6118745986844097  0.4196906038779732  0.13457560377397998  1.0000
  H   H29       1.0  0.029829947075358847  0.10128592244539499  0.8215436722106736  1.0000
  H   H30       1.0  0.9701700512284392  0.6012859224913797  0.6784563278460028  1.0000
  H   H31       1.0  0.9701700520072365  0.898714077446555  0.1784563279275419  1.0000
  H   H32       1.0  0.029829947854155915  0.39871407760058963  0.32154367229221276  1.0000
  H   H33       1.0  0.028247836298356175  0.15418254751155408  0.8337167878916214  1.0000
  H   H34       1.0  0.9717521639934517  0.6541825473575194  0.6662832125071033  1.0000
  H   H35       1.0  0.9717521627842391  0.8458174525804152  0.16628321224659423  1.0000
  H   H36       1.0  0.028247837077153247  0.3458174525344305  0.33371678797316046  1.0000
  H   H37       1.0  0.9930784282304119  0.05026585203673634  0.8003675092282321  1.0000
  H   H38       1.0  0.006921572061396063  0.5502658518827015  0.699632491170493  1.0000
  H   H39       1.0  0.006921570852183399  0.9497341480552329  0.19963249090998372  1.0000
  H   H40       1.0  0.993078429009209  0.4497341480092483  0.30036750930977096  1.0000
  H   H41       1.0  0.6823837219198852  0.9907221569844669  0.5997794762472287  1.0000
  H   H42       1.0  0.31761627837192263  0.49072215713850165  0.9002205241514961  1.0000
  H   H43       1.0  0.31761627915071977  0.00927784290748298  0.40022052423303506  1.0000
  H   H44       1.0  0.6823837207106725  0.5092778429534677  0.09977947598671957  1.0000
  H   H45       1.0  0.8134198208262666  0.21788608723098457  0.6368603295183353  1.0000
  H   H46       1.0  0.18658017946554134  0.7178860872769692  0.8631396708803896  1.0000
  H   H47       1.0  0.18658018024433842  0.7821139126609653  0.3631396709619287  1.0000
  H   H48       1.0  0.8134198196170539  0.2821139128150001  0.13686032925782604  1.0000
  H   H49       1.0  0.4432461803440878  0.38887850958435005  0.4380235926773214  1.0000
  H   H50       1.0  0.5567538195173045  0.8888785096303347  0.06197640754243332  1.0000
  H   H51       1.0  0.5567538207265172  0.6111214903075999  0.5619764078029426  1.0000
  H   H52       1.0  0.4432461795652907  0.11112149046163458  0.9380235925957823  1.0000
  H   H53       1.0  0.5539487903671111  0.33209911142361315  0.37447972990140155  1.0000
  H   H54       1.0  0.44605120949428123  0.8320991112695783  0.1255202703183531  1.0000
  H   H55       1.0  0.4460512107034939  0.6679008886683562  0.6255202705788623  1.0000
  H   H56       1.0  0.553948789588314  0.1679008886223715  0.8744797298198626  1.0000
  H   H57       1.0  0.004956207220657377  0.45122693363467  0.6655255276375706  1.0000
  H   H58       1.0  0.9950437910823696  0.9512269336806546  0.834474471086271  1.0000
  H   H59       1.0  0.9950437918611665  0.5487730662572798  0.3344744711678101  1.0000
  H   H60       1.0  0.004956207999454446  0.0487730662112952  0.16552552771910953  1.0000
  H   H61       1.0  0.41848234114368466  0.3332296909089209  0.5669567178185533  1.0000
  H   H62       1.0  0.5815176591481233  0.8332296909549056  0.9330432825801717  1.0000
  H   H63       1.0  0.5815176579389106  0.6667703089830289  0.4330432823196625  1.0000
  H   H64       1.0  0.41848234192248174  0.16677030893704434  0.0669567179000922  1.0000
  H   H65       1.0  0.33362305584808566  0.41833387665251454  0.823003860181595  1.0000
  H   H66       1.0  0.6663769444437223  0.9183338766984991  0.6769961402171301  1.0000
  H   H67       1.0  0.6663769432345096  0.5816661234394547  0.1769961399566208  1.0000
  H   H68       1.0  0.33362305662688274  0.08166612339347008  0.3230038602631339  1.0000
  H   H69       1.0  0.8617261480222814  0.2946989837794701  0.5259631999688797  1.0000
  H   H70       1.0  0.13827385226952651  0.7946989838254547  0.9740368004298452  1.0000
  H   H71       1.0  0.13827385304832357  0.7053010161124796  0.47403680051138414  1.0000
  H   H72       1.0  0.8617261468130688  0.20530101606649506  0.02596319970837057  1.0000
  H   H73       1.0  0.13905229882513162  0.3199594930755714  0.7833499446520545  1.0000
  H   H74       1.0  0.8609477014666763  0.819959493121556  0.7166500557466703  1.0000
  H   H75       1.0  0.8609477002574636  0.6800405068163785  0.216650055486161  1.0000
  H   H76       1.0  0.1390522996039287  0.1800405069704132  0.28334994473359365  1.0000
  H   H77       1.0  0.7138574983261256  0.2956781815781972  0.7142351125276982  1.0000
  H   H78       1.0  0.28614249997767255  0.7956781816241818  0.7857648875289786  1.0000
  H   H79       1.0  0.28614250075646963  0.7043218183137527  0.2857648876105175  1.0000
  H   H80       1.0  0.7138574991049227  0.20432181826776802  0.21423511260923717  1.0000
  H   H81       1.0  0.7213626926754265  0.47611750604064396  0.4717103395019021  1.0000
  H   H82       1.0  0.27863730718596585  0.9761175060866286  0.028289660717852615  1.0000
  H   H83       1.0  0.2786373083951784  0.5238824938513059  0.5282896609783618  1.0000
  H   H84       1.0  0.7213626918966295  0.02388249400534066  0.971710339420363  1.0000
  H   H85       1.0  0.562117423126484  0.4688475023274792  0.6526592878879811  1.0000
  H   H86       1.0  0.43788257716532386  0.9688475023734638  0.8473407125107437  1.0000
  H   H87       1.0  0.43788257794412094  0.5311524975644707  0.3473407125922827  1.0000
  H   H88       1.0  0.5621174219172713  0.031152497518486044  0.15265928762747197  1.0000
  H   H89       1.0  0.36676173973250825  0.4770748717212868  0.4259555922839796  1.0000
  H   H90       1.0  0.6332382601288841  0.9770748717672714  0.07404440793577509  1.0000
  H   H91       1.0  0.6332382593500869  0.5229251283706825  0.574044407854236  1.0000
  H   H92       1.0  0.36676173895371117  0.022925128324697855  0.9259555922024406  1.0000
  H   H93       1.0  0.19470928248727873  0.22637422632385784  0.4884156306480403  1.0000
  H   H94       1.0  0.8052907193613521  0.7263742263698426  0.011584368580927495  1.0000
  H   H95       1.0  0.805290718582555  0.7736257737681114  0.5115843684993885  1.0000
  H   H96       1.0  0.19470928170848167  0.27362577372212676  0.9884156305665013  1.0000
  H   H97       1.0  0.3634391892580716  0.22189742779877902  0.3140935476853985  1.0000
  H   H98       1.0  0.6365608106033207  0.7218974278447636  0.1859064525343562  1.0000
  H   H99       1.0  0.6365608098245237  0.7781025720931709  0.6859064524528171  1.0000
  H   H100      1.0  0.3634391884792746  0.2781025720471862  0.8140935476038594  1.0000
  H   H101      1.0  0.11847774501142412  0.2478062159888837  0.2925082058771169  1.0000
  H   H102      1.0  0.8815222548499682  0.7478062160348684  0.20749179434263781  1.0000
  H   H103      1.0  0.8815222540711712  0.7521937839030661  0.7074917942610988  1.0000
  H   H104      1.0  0.1184777462206368  0.2521937840571009  0.792508206137626  1.0000
  H   H105      1.0  0.3999924815368879  0.3605375258301911  0.8798770063782682  1.0000
  H   H106      1.0  0.60000751875492  0.8605375258761757  0.6201229940204567  1.0000
  H   H107      1.0  0.6000075195337171  0.6394624740617587  0.12012299410199569  1.0000
  H   H108      1.0  0.3999924803276752  0.1394624740157741  0.379877006117759  1.0000
  H   H109      1.0  0.3031722363936922  0.28877424858007544  0.3778590679351514  1.0000
  H   H110      1.0  0.696827763466929  0.78877424862606  0.1221409309517682  1.0000
  H   H111      1.0  0.6968277626881318  0.7112257515118938  0.6221409308702291  1.0000
  H   H112      1.0  0.30317223760290485  0.21122575146590922  0.8778590681956606  1.0000
  C   C1        1.0  0.8124597934555251  0.17862581132103825  0.6168625194562865  1.0000
  C   C2        1.0  0.18754020683551162  0.6786258113670229  0.8831374796096033  1.0000
  C   C3        1.0  0.18754020761430867  0.8213741885709116  0.38313747969114237  1.0000
  C   C4        1.0  0.8124597922463124  0.32137418852492694  0.11686251919577725  1.0000
  C   C5        1.0  0.9227367348453679  0.05167074793536996  0.6497428732964423  1.0000
  C   C6        1.0  0.07726326544644004  0.5516707479813546  0.8502571271022825  1.0000
  C   C7        1.0  0.0772632662252371  0.9483292519565798  0.35025712718382157  1.0000
  C   C8        1.0  0.9227367356241649  0.44832925191059525  0.14974287337798128  1.0000
  C   C9        1.0  0.9753657650981802  0.15395337187764638  0.6820759197339309  1.0000
  C   C10       1.0  0.024634235193627674  0.6539533719236311  0.8179240806647939  1.0000
  C   C11       1.0  0.024634235972424746  0.8460466280143034  0.31792408074633294  1.0000
  C   C12       1.0  0.9753657638889676  0.34604662816833826  0.18207591947342172  1.0000
  C   C13       1.0  0.9756831192909826  0.102457168676064  0.6704054572855195  1.0000
  C   C14       1.0  0.02431688100082527  0.6024571687220487  0.8295945431132054  1.0000
  C   C15       1.0  0.02431688177962234  0.8975428312158859  0.3295945431947443  1.0000
  C   C16       1.0  0.97568311808177  0.39754283136992064  0.17040545702501037  1.0000
  C   C17       1.0  0.8283031155983844  0.12846343612330324  0.6072408373279223  1.0000
  C   C18       1.0  0.1716968846934235  0.6284634361692879  0.8927591630708026  1.0000
  C   C19       1.0  0.17169688547222056  0.8715365637686466  0.39275916315234155  1.0000
  C   C20       1.0  0.8283031143891717  0.371536563722662  0.10724083706741312  1.0000
  C   C21       1.0  0.7354256213626862  0.028917581093840735  0.5835351787022984  1.0000
  C   C22       1.0  0.2645743789291218  0.5289175811398253  0.9164648216964264  1.0000
  C   C23       1.0  0.26457437970791886  0.9710824187981091  0.4164648217779654  1.0000
  C   C24       1.0  0.7354256201534735  0.47108241895214387  0.08353517844178925  1.0000
  C   C25       1.0  0.7988064038424784  0.07881080737958485  0.5911462547867019  1.0000
  C   C26       1.0  0.20119359644932955  0.5788108074255695  0.9088537456120229  1.0000
  C   C27       1.0  0.20119359722812657  0.921189192512365  0.40885374569356187  1.0000
  C   C28       1.0  0.7988064026332656  0.42118919266639976  0.09114625452619272  1.0000
  C   C29       1.0  0.6386266039485119  0.39472163866657295  0.5202249546164126  1.0000
  C   C30       1.0  0.3613733963425249  0.8947216387125576  0.979775044449477  1.0000
  C   C31       1.0  0.36137339513331224  0.6052783614253963  0.479775044188968  1.0000
  C   C32       1.0  0.6386266047273089  0.10527836137941171  0.020224954697951623  1.0000
  C   C33       1.0  0.8208422105959797  0.3469218408787552  0.6196823063521744  1.0000
  C   C34       1.0  0.17915778969582827  0.8469218409247398  0.8803176940465505  1.0000
  C   C35       1.0  0.1791577884866156  0.653078159213214  0.3803176937860413  1.0000
  C   C36       1.0  0.8208422113747766  0.15307815916722942  0.11968230643371339  1.0000
  C   C37       1.0  0.07673313017863559  0.3843893502600649  0.719995663433745  1.0000
  C   C38       1.0  0.9232668701131723  0.8843893503060496  0.7800043369649798  1.0000
  C   C39       1.0  0.9232668708919695  0.6156106496318849  0.2800043370465189  1.0000
  C   C40       1.0  0.07673312896942291  0.11561064958590034  0.21999566317323577  1.0000
  C   C41       1.0  0.8250975490591869  0.3756908571592995  0.6091659051869672  1.0000
  C   C42       1.0  0.17490245123262108  0.8756908572052841  0.8908340952117575  1.0000
  C   C43       1.0  0.1749024500234084  0.6243091429326697  0.3908340949512484  1.0000
  C   C44       1.0  0.8250975498379838  0.12430914288668511  0.10916590526850625  1.0000
  C   C45       1.0  0.06167381778270304  0.33949332018676587  0.7352256315581414  1.0000
  C   C46       1.0  0.9383261825091049  0.8394933202327505  0.7647743688405835  1.0000
  C   C47       1.0  0.938326183287902  0.6605066797051841  0.2647743689221225  1.0000
  C   C48       1.0  0.06167381856150011  0.1605066796591994  0.23522563163968027  1.0000
  C   C49       1.0  0.1429625774884813  0.4114572749059859  0.7397295263212132  1.0000
  C   C50       1.0  0.8570374228025556  0.9114572749519705  0.7602704727446765  1.0000
  C   C51       1.0  0.8570374235813525  0.5885427249859639  0.26027047282621546  1.0000
  C   C52       1.0  0.14296257627926864  0.08854272493997938  0.2397295260607041  1.0000
  C   C53       1.0  0.7052196191529648  0.4217628811238709  0.5415547867624297  1.0000
  C   C54       1.0  0.2947803791508333  0.9217628811698556  0.9584452132942468  1.0000
  C   C55       1.0  0.2947803799296304  0.578237118768079  0.4584452133757859  1.0000
  C   C56       1.0  0.705219619931762  0.07823711892211375  0.041554786843968766  1.0000
  C   C57       1.0  0.4981603778228048  0.2548362218181997  0.48994371062716824  1.0000
  C   C58       1.0  0.501839624025826  0.7548362218641843  0.010056288601799539  1.0000
  C   C59       1.0  0.501839623247029  0.7451637782737695  0.5100562885202605  1.0000
  C   C60       1.0  0.4981603770440078  0.2451637782277849  0.9899437105456292  1.0000
  C   C61       1.0  0.9554767779338987  0.4300658782548465  0.6499612629023466  1.0000
  C   C62       1.0  0.044523222357909155  0.9300658783008312  0.8500387374963784  1.0000
  C   C63       1.0  0.044523221148696494  0.5699341216371033  0.35003873723586915  1.0000
  C   C64       1.0  0.9554767787126958  0.06993412159111874  0.14996126298388554  1.0000
  C   C65       1.0  0.6019083966630805  0.3286461234254496  0.5242904661164098  1.0000
  C   C66       1.0  0.3980916016407177  0.8286461234714342  0.9757095339402669  1.0000
  C   C67       1.0  0.3980916024195147  0.6713538764665002  0.47570953402180594  1.0000
  C   C68       1.0  0.6019083974418776  0.17135387662053508  0.024290466197948772  1.0000
  C   C69       1.0  0.6763058626956941  0.29949071885871464  0.565311865483526  1.0000
  C   C70       1.0  0.3236941375953425  0.7994907189046992  0.9346881335823637  1.0000
  C   C71       1.0  0.32369413638612987  0.7005092810332353  0.4346881333218546  1.0000
  C   C72       1.0  0.6763058634752624  0.20050928118727  0.06531186689790011  1.0000
  C   C73       1.0  0.27850087474731855  0.23707539951842155  0.38805411396660544  1.0000
  C   C74       1.0  0.7214991251140738  0.7370753995644062  0.11194588625314919  1.0000
  C   C75       1.0  0.7214991263232864  0.7629246003735283  0.6119458865136583  1.0000
  C   C76       1.0  0.2785008739685215  0.26292460032754367  0.8880541138850666  1.0000
  C   C77       1.0  0.5460637380644333  0.46684994993115414  0.5042346225250066  1.0000
  C   C78       1.0  0.4539362622273746  0.9668499499771388  0.9957653778737183  1.0000
  C   C79       1.0  0.4539362630061716  0.5331500499607957  0.4957653779552572  1.0000
  C   C80       1.0  0.5460637368552207  0.03315004991481107  0.004234622264497435  1.0000
  N   N1        1.0  0.21450579910312015  0.36176467348424246  0.795003110415724  1.0000
  N   N2        1.0  0.785494199200678  0.8617646735302271  0.7049968896409528  1.0000
  N   N3        1.0  0.7854941999794751  0.6382353264077074  0.2049968897224917  1.0000
  N   N4        1.0  0.21450579988191726  0.13823532636172275  0.295003110497263  1.0000
  N   N5        1.0  0.4684220916492567  0.2813705688980836  0.4682258050912315  1.0000
  N   N6        1.0  0.5315779082121357  0.7813705689440683  0.031774195128523225  1.0000
  N   N7        1.0  0.5315779074333385  0.7186294311938857  0.5317741950469842  1.0000
  N   N8        1.0  0.46842209285846925  0.218629431147901  0.9682258053517405  1.0000
  O   O1        1.0  0.9352045611165581  0.20143094260399608  0.68330836653927  1.0000
  O   O2        1.0  0.06479543718724007  0.7014309426499806  0.8166916335174068  1.0000
  O   O3        1.0  0.06479543796603714  0.7985690574879731  0.31669163359894575  1.0000
  O   O4        1.0  0.9352045618953554  0.2985690574419886  0.1833083666208089  1.0000
  O   O5        1.0  0.5869431311684546  0.1782305437734093  0.5136878424340023  1.0000
  O   O6        1.0  0.4130568691233531  0.6782305436193745  0.9863121579647224  1.0000
  O   O7        1.0  0.4130568679141405  0.82176945631856  0.48631215770421327  1.0000
  O   O8        1.0  0.5869431319472519  0.3217694562725753  0.013687842515541416  1.0000
  O   O9        1.0  0.5155785948204122  0.03209921356593454  0.47132993536792456  1.0000
  O   O10       1.0  0.48442140504098  0.5320992136119191  0.028670064851830133  1.0000
  O   O11       1.0  0.4844214062501927  0.9679007863260153  0.5286700651123394  1.0000
  O   O12       1.0  0.5155785940416152  0.46790078648005007  0.9713299352863854  1.0000
  O   O13       1.0  0.8217150531609944  0.005278218676371068  0.6535264081067094  1.0000
  O   O14       1.0  0.1782849451420327  0.5052782187223557  0.8464735906171321  1.0000
  O   O15       1.0  0.17828494592082975  0.9947217812155789  0.3464735906986712  1.0000
  O   O16       1.0  0.8217150539397914  0.49472178116959414  0.1535264081882484  1.0000
  O   O17       1.0  0.7061496850208253  0.24572204398899397  0.5976545876022168  1.0000
  O   O18       1.0  0.29385031527098265  0.7457220440349785  0.902345412796508  1.0000
  O   O19       1.0  0.2938503140617699  0.7542779559029559  0.402345412535999  1.0000
  O   O20       1.0  0.7061496857996223  0.25427795585697127  0.09765458768375572  1.0000
  O   O21       1.0  0.5152827496708291  0.43949643517816867  0.4484782641066402  1.0000
  O   O22       1.0  0.484717250189792  0.9394964350241338  0.051521734780279375  1.0000
  O   O23       1.0  0.4847172513990047  0.5605035649138006  0.5515217350407886  1.0000
  O   O24       1.0  0.5152827488920321  0.060503564867815995  0.9484782640251012  1.0000
