data_image0
_chemical_formula_structural       H28C28N8O4S4I12
_chemical_formula_sum              "H28 C28 N8 O4 S4 I12"
_cell_length_a       13.228038162120892
_cell_length_b       4.382833532570571
_cell_length_c       21.704457496470706
_cell_angle_alpha    90.0
_cell_angle_beta     99.2624615635207
_cell_angle_gamma    90.0

_space_group_name_H-M_alt    "P 1"
_space_group_IT_number       1

loop_
  _space_group_symop_operation_xyz
  'x, y, z'

loop_
  _atom_site_type_symbol
  _atom_site_label
  _atom_site_symmetry_multiplicity
  _atom_site_fract_x
  _atom_site_fract_y
  _atom_site_fract_z
  _atom_site_occupancy
  H   H1        1.0  0.2103996940504329  0.4606206818026104  0.45049779103628157  1.0000
  H   H2        1.0  0.7896003059981683  0.9606206826501703  0.04950220918071612  1.0000
  H   H3        1.0  0.7896003063458471  0.5393793176108805  0.5495022092797941  1.0000
  H   H4        1.0  0.21039969351149282  0.03937931676332061  0.9504977906740472  1.0000
  H   H5        1.0  0.2690099744719589  0.883430577781739  0.23910689881615188  1.0000
  H   H6        1.0  0.7309900255766423  0.383430576934179  0.26089310140084576  1.0000
  H   H7        1.0  0.7309900251698497  0.11656942163175199  0.7608931015054009  1.0000
  H   H8        1.0  0.2690099746874904  0.616569422479312  0.7391068984484405  1.0000
  H   H9        1.0  0.09914507071131151  0.6243494806874549  0.23223676663101195  1.0000
  H   H10       1.0  0.9008549293372895  0.12434948212152395  0.26776323358598575  1.0000
  H   H11       1.0  0.9008549289304971  0.375650518726036  0.7677632336905409  1.0000
  H   H12       1.0  0.0991450710589904  0.875650519573596  0.73223676673009  1.0000
  H   H13       1.0  0.989050486364534  0.7062674128498074  0.3122764845593897  1.0000
  H   H14       1.0  0.010949513684067205  0.20626741200224752  0.18772351565760795  1.0000
  H   H15       1.0  0.0109495140317461  0.29373258884531245  0.687723515756686  1.0000
  H   H16       1.0  0.989050485825594  0.7937325874112434  0.8122764841971555  1.0000
  H   H17       1.0  0.03774516502258867  0.07051836390845707  0.400318294897431  1.0000
  H   H18       1.0  0.9622548350260125  0.570518364756017  0.0996817053195667  1.0000
  H   H19       1.0  0.9622548353736913  0.9294816355050338  0.5996817054186447  1.0000
  H   H20       1.0  0.03774516448364864  0.4294816346574739  0.9003182945351966  1.0000
  H   H21       1.0  0.5024099908222143  0.9395060659730173  0.7606490032197619  1.0000
  H   H22       1.0  0.4975900097895973  0.43950606512545737  0.7393509967286025  1.0000
  H   H23       1.0  0.49759000957406574  0.06049393572210259  0.23935099709631377  1.0000
  H   H24       1.0  0.5024099904745354  0.5604939342880336  0.26064900312068384  1.0000
  H   H25       1.0  0.4525444093877655  0.15917534736730657  0.8052949168462435  1.0000
  H   H26       1.0  0.5474555904695746  0.6591753459332376  0.6947050831075978  1.0000
  H   H27       1.0  0.5474555908763672  0.8408246520461844  0.19470508300304265  1.0000
  H   H28       1.0  0.452544409172234  0.3408246534802534  0.30529491721395496  1.0000
  C   C1        1.0  0.3265522242454346  0.4433106380977327  0.3920376713190713  1.0000
  C   C2        1.0  0.6734477764254906  0.9433106389452925  0.10796232842565975  1.0000
  C   C3        1.0  0.6734477760186981  0.5566893613157582  0.6079623285302148  1.0000
  C   C4        1.0  0.3265522238386421  0.05668936274982726  0.8920376714236266  1.0000
  C   C5        1.0  0.24789937225933537  0.12886401589355959  0.3233221457531211  1.0000
  C   C6        1.0  0.7521006277892657  0.6288640144594906  0.17667785446387652  1.0000
  C   C7        1.0  0.7521006272503258  0.8711359858015604  0.6766778541016423  1.0000
  C   C8        1.0  0.24789937260701425  0.37113598495400035  0.8233221458521991  1.0000
  C   C9        1.0  0.21859307253556765  0.9272407404477582  0.27319052665614085  1.0000
  C   C10       1.0  0.7814069273808861  0.4272407418818271  0.2268094730940674  1.0000
  C   C11       1.0  0.7814069277285649  0.07275925896573286  0.7268094731931454  1.0000
  C   C12       1.0  0.21859307212877507  0.5727592598132928  0.773190526760696  1.0000
  C   C13       1.0  0.12460474924586933  0.7830979809052867  0.27017451483876515  1.0000
  C   C14       1.0  0.8753952506705845  0.2830979800577268  0.2298254849114431  1.0000
  C   C15       1.0  0.8753952510182633  0.21690202078983314  0.7298254850105211  1.0000
  C   C16       1.0  0.12460474883907673  0.7169020193557641  0.7701745149433202  1.0000
  C   C17       1.0  0.06099815332042078  0.83217102883231  0.3159219767777597  1.0000
  C   C18       1.0  0.939001846596033  0.33217102798474996  0.18407802297244857  1.0000
  C   C19       1.0  0.9390018461892404  0.167828970581181  0.6840780230770037  1.0000
  C   C20       1.0  0.06099815366809971  0.667828971428741  0.8159219768768378  1.0000
  C   C21       1.0  0.0875060282142665  0.03411267365938741  0.36556556733626633  1.0000
  C   C22       1.0  0.9124939718343346  0.5341126722253184  0.13443443288073134  1.0000
  C   C23       1.0  0.9124939721820136  0.9658873280357325  0.6344344329798094  1.0000
  C   C24       1.0  0.08750602767532649  0.46588732718817255  0.8655655669740321  1.0000
  C   C25       1.0  0.18145793077143021  0.18141996133119093  0.36846285247728183  1.0000
  C   C26       1.0  0.818542069277171  0.6814199598971219  0.13153714773971587  1.0000
  C   C27       1.0  0.8185420694927024  0.8185800403639291  0.6315371473720044  1.0000
  C   C28       1.0  0.1814579311191091  0.31858003951636904  0.8684628525763598  1.0000
  N   N1        1.0  0.23406706418247986  0.38286643960575306  0.41073448072486124  1.0000
  N   N2        1.0  0.7659329357339739  0.8828664381716841  0.08926551902534696  1.0000
  N   N3        1.0  0.7659329353271813  0.6171335620893669  0.5892655191299021  1.0000
  N   N4        1.0  0.23406706453015877  0.11713356124180692  0.9107344808239393  1.0000
  N   N5        1.0  0.33624958134399735  0.2911381576593005  0.33909542766809975  1.0000
  N   N6        1.0  0.6637504185724564  0.7911381585068604  0.16090457208210848  1.0000
  N   N7        1.0  0.6637504189201353  0.7088618417541904  0.6609045721811865  1.0000
  N   N8        1.0  0.33624958169167624  0.20886184090663049  0.8390954277671778  1.0000
  O   O1        1.0  0.514124917804878  0.13586372504792638  0.7850242724915796  1.0000
  O   O2        1.0  0.48587508205246205  0.6358637258954863  0.7149757274622619  1.0000
  O   O3        1.0  0.48587508170478316  0.8641362743655645  0.2149757273631838  1.0000
  O   O4        1.0  0.5141249182116706  0.36413627351800465  0.2850242723870245  1.0000
  S   S1        1.0  0.42349055748237613  0.6699029447915095  0.4274563930997129  1.0000
  S   S2        1.0  0.5765094424340776  0.1699029439439495  0.07254360665049535  1.0000
  S   S3        1.0  0.5765094427817565  0.33009705462198147  0.5725436067495735  1.0000
  S   S4        1.0  0.42349055707558353  0.8300970554695414  0.927456393204268  1.0000
  I   I1        1.0  0.09068581263029224  0.4003070312759477  0.5416169549916992  1.0000
  I   I2        1.0  0.9093141872270478  0.9003070321235076  0.9583830449621422  1.0000
  I   I3        1.0  0.9093141868793689  0.5996929681375432  0.45838304486306414  1.0000
  I   I4        1.0  0.09068581303708481  0.09969296728998331  0.04161695488714402  1.0000
  I   I5        1.0  0.2806135667750909  0.12129236852128612  0.6330166293106083  1.0000
  I   I6        1.0  0.7193864330822491  0.6212923670872171  0.8669833706432332  1.0000
  I   I7        1.0  0.7193864327345703  0.8787076308922048  0.3669833705441551  1.0000
  I   I8        1.0  0.28061356718188346  0.37870763232627386  0.13301662920605312  1.0000
  I   I9        1.0  0.36166551737467295  0.8486815258571784  0.5278318483836552  1.0000
  I   I10       1.0  0.6383344826148145  0.3486815250096184  0.9721681520369756  1.0000
  I   I11       1.0  0.6383344822671357  0.15131847355631256  0.4721681519378977  1.0000
  I   I12       1.0  0.36166551778146544  0.6513184744038726  0.0278318482791  1.0000
