data_image0
_chemical_formula_structural       H64C76N8O8Cl4
_chemical_formula_sum              "H64 C76 N8 O8 Cl4"
_cell_length_a       4.612304293036815
_cell_length_b       45.0733889329345
_cell_length_c       7.929349816320331
_cell_angle_alpha    90.0
_cell_angle_beta     106.83446008411269
_cell_angle_gamma    90.0

_space_group_name_H-M_alt    "P 1"
_space_group_IT_number       1

loop_
  _space_group_symop_operation_xyz
  'x, y, z'

loop_
  _atom_site_type_symbol
  _atom_site_label
  _atom_site_symmetry_multiplicity
  _atom_site_fract_x
  _atom_site_fract_y
  _atom_site_fract_z
  _atom_site_occupancy
  H   H1        1.0  0.6398051328398768  0.37249381103740575  0.3094222234299132  1.0000
  H   H2        1.0  0.3601948673373199  0.8724938111157835  0.1905777769606877  1.0000
  H   H3        1.0  0.36019486689587576  0.6275061888974893  0.6905777768205147  1.0000
  H   H4        1.0  0.6398051345686157  0.12750618881911158  0.8094222232939181  1.0000
  H   H5        1.0  0.07244958294644599  0.45046339693273457  0.45302496194164815  1.0000
  H   H6        1.0  0.9275504165816133  0.9504633970111124  0.04697503713135672  1.0000
  H   H7        1.0  0.9275504167893067  0.5495366030021606  0.5469750383087798  1.0000
  H   H8        1.0  0.07244958467518456  0.049536602923782744  0.9530249618056529  1.0000
  H   H9        1.0  0.2783814087176021  0.3378743342920079  0.6139532806911557  1.0000
  H   H10       1.0  0.7216185905767064  0.8378743341485252  0.8860467194190993  1.0000
  H   H11       1.0  0.7216185910181505  0.6621256658647475  0.38604671955927217  1.0000
  H   H12       1.0  0.27838140915904624  0.16212566578636983  0.11395328083132873  1.0000
  H   H13       1.0  0.3224564555183715  0.3580810352204687  0.9083019062539988  1.0000
  H   H14       1.0  0.6775435437759371  0.8580810352988463  0.5916980938562562  1.0000
  H   H15       1.0  0.677543544217381  0.6419189647144264  0.09169809399642918  1.0000
  H   H16       1.0  0.32245645595981565  0.1419189646360487  0.40830190639417174  1.0000
  H   H17       1.0  0.6484060767395974  0.4025969899223768  0.01969599274621874  1.0000
  H   H18       1.0  0.3515939234375995  0.9025969900007544  0.48030400764438214  1.0000
  H   H19       1.0  0.35159392299615533  0.5974030100125183  0.9803040075042092  1.0000
  H   H20       1.0  0.6484060762981532  0.09740300993414056  0.5196959926060458  1.0000
  H   H21       1.0  0.8975002224075508  0.4279110804980311  0.8172174623581995  1.0000
  H   H22       1.0  0.1024997768867578  0.9279110805764088  0.6827825377520556  1.0000
  H   H23       1.0  0.10249977732820191  0.5720889194368639  0.18278253789222848  1.0000
  H   H24       1.0  0.8975002228489949  0.0720889195803466  0.3172174624983724  1.0000
  H   H25       1.0  0.045947003350233086  0.362105979079692  0.12401070029115417  1.0000
  H   H26       1.0  0.9540529968269638  0.8621059791580697  0.37598930009944675  1.0000
  H   H27       1.0  0.9540529963855195  0.6378940208552031  0.8759892999592738  1.0000
  H   H28       1.0  0.045947002908788954  0.13789402077682536  0.6240107001509813  1.0000
  H   H29       1.0  0.7358889002467203  0.3197317583872597  0.9664946728688688  1.0000
  H   H30       1.0  0.2641110990475883  0.8197317582437771  0.5335053272413863  1.0000
  H   H31       1.0  0.2641110994890324  0.6802682417694957  0.03350532738155921  1.0000
  H   H32       1.0  0.7358889006881644  0.18026824169111802  0.4664946730090417  1.0000
  H   H33       1.0  0.8824668501259696  0.26794824875427237  0.06873820901618599  1.0000
  H   H34       1.0  0.11753314940208974  0.7679482488326501  0.43126179005681886  1.0000
  H   H35       1.0  0.11753314896064564  0.7320517511806227  0.9312617899166459  1.0000
  H   H36       1.0  0.8824668518547083  0.23205175132410538  0.5687382088801908  1.0000
  H   H37       1.0  0.6690495362608593  0.28908462683796876  0.6285493817646508  1.0000
  H   H38       1.0  0.33095046303344927  0.7890846266944861  0.8714506183456042  1.0000
  H   H39       1.0  0.33095046347489343  0.7109153733187866  0.37145061848577715  1.0000
  H   H40       1.0  0.6690495367023034  0.210915373240409  0.12854938190482373  1.0000
  H   H41       1.0  0.8844346643092239  0.28401757562644736  0.4795017199983909  1.0000
  H   H42       1.0  0.11556533521883547  0.7840175754829646  0.020498279074613945  1.0000
  H   H43       1.0  0.1155653375967116  0.715982424530308  0.5204982802562148  1.0000
  H   H44       1.0  0.8844346638677797  0.21598242445193036  0.9795017198582179  1.0000
  H   H45       1.0  0.851713388069961  0.31998545308984827  0.5639810518285158  1.0000
  H   H46       1.0  0.14828661339453034  0.8199854529463657  0.9360189482859169  1.0000
  H   H47       1.0  0.14828661383597447  0.6800145470669072  0.4360189484260899  1.0000
  H   H48       1.0  0.8517133863412224  0.18001454698852945  0.06398105196451102  1.0000
  H   H49       1.0  0.1825631798886876  0.5089425111595777  0.418531908862087  1.0000
  H   H50       1.0  0.8174368202885093  0.008942511303060304  0.08146809152851389  1.0000
  H   H51       1.0  0.8174368198470651  0.4910574887753174  0.581468091388341  1.0000
  H   H52       1.0  0.18256317944724337  0.9910574888536953  0.918531908721914  1.0000
  H   H53       1.0  0.40965044671017736  0.5335513474654165  0.21252932268134886  1.0000
  H   H54       1.0  0.5903495534670195  0.033551347387038896  0.28747067770925205  1.0000
  H   H55       1.0  0.5903495530255753  0.4664486524694785  0.7874706775690792  1.0000
  H   H56       1.0  0.40965044626873315  0.9664486525478562  0.7125293225411758  1.0000
  H   H57       1.0  0.4152015457821349  0.4480125355128318  0.9623936342391789  1.0000
  H   H58       1.0  0.5847984535121735  0.9480125355912097  0.537606365871076  1.0000
  H   H59       1.0  0.5847984533044802  0.5519874644220633  0.03760636469365296  1.0000
  H   H60       1.0  0.41520154622357913  0.05198746434368548  0.46239363437935194  1.0000
  H   H61       1.0  0.19626995712502657  0.42672114578777887  0.18826202991604796  1.0000
  H   H62       1.0  0.8037300430521702  0.9267211456442961  0.31173797047455293  1.0000
  H   H63       1.0  0.8037300447809089  0.5732788543689766  0.8117379703385578  1.0000
  H   H64       1.0  0.19626995668358244  0.0732788542905989  0.688262029775875  1.0000
  C   C1        1.0  0.728096423155478  0.39779683610385813  0.6035289400653814  1.0000
  C   C2        1.0  0.27190357548969313  0.8977968359603754  0.8964710587272777  1.0000
  C   C3        1.0  0.2719035759311372  0.6022031640528973  0.3964710588674505  1.0000
  C   C4        1.0  0.7280964235969221  0.10220316397451956  0.10352894020555435  1.0000
  C   C5        1.0  0.561125458626182  0.3711052948534303  0.5455233470849686  1.0000
  C   C6        1.0  0.43887454066812653  0.871105294931808  0.9544766530252864  1.0000
  C   C7        1.0  0.4388745411095707  0.6288947050814647  0.45447665316545943  1.0000
  C   C8        1.0  0.5611254590676261  0.12889470500308703  0.04552334722514148  1.0000
  C   C9        1.0  0.4149482977687367  0.35754836171691373  0.6596320098920113  1.0000
  C   C10       1.0  0.5850517015255717  0.8575483617952915  0.8403679902182437  1.0000
  C   C11       1.0  0.585051701967016  0.6424516382179813  0.34036799035841664  1.0000
  C   C12       1.0  0.4149482982101808  0.14245163836146402  0.15963201003218425  1.0000
  C   C13       1.0  0.4412949032969154  0.36905519074127907  0.8251577906991411  1.0000
  C   C14       1.0  0.5587050981675759  0.8690551905977965  0.6748422094152916  1.0000
  C   C15       1.0  0.5587050957896998  0.6309448094154764  0.17484220823369082  1.0000
  C   C16       1.0  0.44129490373835956  0.13094480933709862  0.325157790839314  1.0000
  C   C17       1.0  0.6184113752343683  0.3943525304131768  0.8865390922713756  1.0000
  C   C18       1.0  0.38158862405994015  0.8943525304915545  0.6134609078388793  1.0000
  C   C19       1.0  0.38158862450138425  0.6056474695217182  0.11346090797905228  1.0000
  C   C20       1.0  0.6184113756758125  0.1056474696652009  0.38653909241154866  1.0000
  C   C21       1.0  0.7571142159399548  0.40834039165294517  0.7745255071446427  1.0000
  C   C22       1.0  0.2428857855245365  0.9083403915094626  0.7254744929697899  1.0000
  C   C23       1.0  0.24288578379579784  0.5916596085038103  0.22547449310578518  1.0000
  C   C24       1.0  0.757114216381399  0.09165960842543253  0.27452550728481573  1.0000
  C   C25       1.0  0.865005833307391  0.41437109239311926  0.4868216061848516  1.0000
  C   C26       1.0  0.13499416686980567  0.9143710922496365  0.013178394205749245  1.0000
  C   C27       1.0  0.13499416642836154  0.5856289077636362  0.5131783940655763  1.0000
  C   C28       1.0  0.8650058350361298  0.08562890768525849  0.9868216060488565  1.0000
  C   C29       1.0  0.36690753980138463  0.33438856511157694  0.30661878777130347  1.0000
  C   C30       1.0  0.6330924603758121  0.8343885649680943  0.19338121261929744  1.0000
  C   C31       1.0  0.633092459934368  0.6656114348233181  0.6933812124791245  1.0000
  C   C32       1.0  0.3669075415301233  0.16561143496680078  0.8066187876353081  1.0000
  C   C33       1.0  0.1099515035386818  0.33934816067987594  0.16380662055413128  1.0000
  C   C34       1.0  0.8900484959893775  0.8393481607582537  0.3361933785188736  1.0000
  C   C35       1.0  0.8900484955479333  0.660651839255019  0.8361933783787007  1.0000
  C   C36       1.0  0.1099515037463751  0.16065183939850175  0.6638066217315544  1.0000
  C   C37       1.0  0.9364376749170774  0.31566881250421364  0.07677772677476576  1.0000
  C   C38       1.0  0.06356232461098187  0.8156688125825914  0.42322227229823906  1.0000
  C   C39       1.0  0.06356232481867523  0.6843311874306813  0.9232222734756622  1.0000
  C   C40       1.0  0.9364376744756333  0.18433118757416406  0.5767777266345928  1.0000
  C   C41       1.0  0.016403487585649013  0.28677694125091946  0.13320721207501224  1.0000
  C   C42       1.0  0.9835965125915479  0.7867769411074369  0.36679278831558865  1.0000
  C   C43       1.0  0.9835965121501037  0.7132230589058359  0.8667927881754157  1.0000
  C   C44       1.0  0.016403487144204875  0.2132230588274583  0.6332072119348393  1.0000
  C   C45       1.0  0.27183128770248416  0.2821541406376789  0.27571601813452895  1.0000
  C   C46       1.0  0.7281687118255751  0.7821541407160566  0.2242839809384759  1.0000
  C   C47       1.0  0.7281687113841309  0.7178458592972161  0.7242839807983029  1.0000
  C   C48       1.0  0.2718312879101775  0.21784585921883842  0.7757160193119521  1.0000
  C   C49       1.0  0.4552325540859384  0.30532178200482235  0.3666703083328893  1.0000
  C   C50       1.0  0.5447674460912584  0.8053217820832002  0.1333296920577116  1.0000
  C   C51       1.0  0.5447674456498143  0.6946782179300727  0.6333296919175386  1.0000
  C   C52       1.0  0.45523255364449416  0.19467821785169498  0.8666703081927163  1.0000
  C   C53       1.0  0.729985844340081  0.2993770654804295  0.5178239497694841  1.0000
  C   C54       1.0  0.27001415495422754  0.7993770655588072  0.9821760503407709  1.0000
  C   C55       1.0  0.27001415539567175  0.7006229344544656  0.4821760504809439  1.0000
  C   C56       1.0  0.7299858441323875  0.2006229343760878  0.017823948592060948  1.0000
  C   C57       1.0  0.2397761930812642  0.4959800911190227  0.3165371733719071  1.0000
  C   C58       1.0  0.7602238070959325  0.9959800911974004  0.18346282701869376  1.0000
  C   C59       1.0  0.7602238066544884  0.5040199088158723  0.6834628268785208  1.0000
  C   C60       1.0  0.23977619263982006  0.004019908959355091  0.8165371732317342  1.0000
  C   C61       1.0  0.36539981292670043  0.5098536627497344  0.19788825533156545  1.0000
  C   C62       1.0  0.6346001872504964  0.009853662893217123  0.3021117450590355  1.0000
  C   C63       1.0  0.6346001889792351  0.4901463371851606  0.8021117449230403  1.0000
  C   C64       1.0  0.3653998124852563  0.9901463372635383  0.6978882551913924  1.0000
  C   C65       1.0  0.43350394885371163  0.49308388222303223  0.06495356405907694  1.0000
  C   C66       1.0  0.5664960506743477  0.99308388230141  0.4350464350139279  1.0000
  C   C67       1.0  0.5664960502329035  0.5069161177118628  0.9350464348737549  1.0000
  C   C68       1.0  0.4335039484122674  0.006916117855345487  0.564953563918904  1.0000
  C   C69       1.0  0.3694711577611303  0.46259017690069504  0.06094955123039127  1.0000
  C   C70       1.0  0.6305288424160664  0.9625901767572123  0.43905044916020963  1.0000
  C   C71       1.0  0.6305288419746222  0.5374098230342  0.9390504490200366  1.0000
  C   C72       1.0  0.36947115948986897  0.0374098231776827  0.560949551094396  1.0000
  C   C73       1.0  0.24733689427125938  0.45033961081120943  0.1861689122677041  1.0000
  C   C74       1.0  0.7526631059059374  0.9503396106677269  0.31383108812289684  1.0000
  C   C75       1.0  0.7526631054644932  0.549660389345546  0.8138310879827239  1.0000
  C   C76       1.0  0.24733689382981516  0.04966038926716824  0.6861689121275311  1.0000
  N   N1        1.0  0.5430697837053722  0.35930233943795065  0.38424994159785647  1.0000
  N   N2        1.0  0.4569302164718246  0.8593023395163284  0.11575005879274441  1.0000
  N   N3        1.0  0.45693021603038037  0.6406976604969444  0.6157500586525714  1.0000
  N   N4        1.0  0.5430697832639281  0.14069766041856668  0.8842499414576837  1.0000
  N   N5        1.0  0.18366117089388143  0.46673274337773146  0.31238663032868047  1.0000
  N   N6        1.0  0.8163388292833155  0.9667327434561093  0.18761337006192053  1.0000
  N   N7        1.0  0.8163388310120541  0.5332672565571636  0.6876133699259254  1.0000
  N   N8        1.0  0.18366117045243727  0.03326725670064626  0.8123866301885074  1.0000
  O   O1        1.0  0.856799428833374  0.4058948790653737  0.3351369337590369  1.0000
  O   O2        1.0  0.14320057134382272  0.9058948789218909  0.16486306663156403  1.0000
  O   O3        1.0  0.14320057090237862  0.5941051210913818  0.6648630664913912  1.0000
  O   O4        1.0  0.8567994283919299  0.09410512101300407  0.8351369336188639  1.0000
  O   O5        1.0  0.9957882331539831  0.4399951794063787  0.5515306181090833  1.0000
  O   O6        1.0  0.004211766140325418  0.939995179262896  0.9484693820011717  1.0000
  O   O7        1.0  0.004211766581769502  0.5600048207503767  0.44846938214134463  1.0000
  O   O8        1.0  0.9957882335954273  0.06000482067199902  0.05153061824925625  1.0000
  Cl  Cl1       1.0  0.36098011676005176  0.24560332076364413  0.34167640025571194  1.0000
  Cl  Cl2       1.0  0.639019883417145  0.7456033208420219  0.158323600134889  1.0000
  Cl  Cl3       1.0  0.639019882975701  0.7543966791712509  0.6583235999947161  1.0000
  Cl  Cl4       1.0  0.36098011631860755  0.25439667909287317  0.8416764001155389  1.0000
