data_image0
_chemical_formula_structural       H40C56N2P2S2I12
_chemical_formula_sum              "H40 C56 N2 P2 S2 I12"
_cell_length_a       11.405895675512816
_cell_length_b       12.62606229208678
_cell_length_c       12.79400592936218
_cell_angle_alpha    68.80261071501978
_cell_angle_beta     72.29009152286076
_cell_angle_gamma    80.84105693161662

_space_group_name_H-M_alt    "P 1"
_space_group_IT_number       1

loop_
  _space_group_symop_operation_xyz
  'x, y, z'

loop_
  _atom_site_type_symbol
  _atom_site_label
  _atom_site_symmetry_multiplicity
  _atom_site_fract_x
  _atom_site_fract_y
  _atom_site_fract_z
  _atom_site_occupancy
  H   H1        1.0  0.9288926311849052  0.3697686077219573  0.18778381206039602  1.0000
  H   H2        1.0  0.07110736933422976  0.630231392917231  0.8122161877565314  1.0000
  H   H3        1.0  0.09397223186228623  0.23801157732392011  0.2597048463719414  1.0000
  H   H4        1.0  0.906027767675141  0.7619884222284707  0.7402951543121575  1.0000
  H   H5        1.0  0.13826173825972238  0.048452150514259384  0.2310836193649307  1.0000
  H   H6        1.0  0.8617382624019323  0.9515478493232629  0.7689163804502377  1.0000
  H   H7        1.0  0.016450613765000496  0.9926427249774056  0.1297436054999548  1.0000
  H   H8        1.0  0.9835493868966542  0.007357274860116768  0.8702563943152136  1.0000
  H   H9        1.0  0.8536596791179424  0.12461887448035554  0.05474483808677387  1.0000
  H   H10       1.0  0.14634032066742858  0.8753811253569599  0.9452551617271687  1.0000
  H   H11       1.0  0.9595704854460813  0.2811349787234799  0.8743743514691263  1.0000
  H   H12       1.0  0.04042951394882638  0.7188650216305771  0.1256256492167314  1.0000
  H   H13       1.0  0.02738656827944731  0.3729184014286994  0.6629260954827011  1.0000
  H   H14       1.0  0.9726134323822073  0.6270815984088227  0.33707390433246737  1.0000
  H   H15       1.0  0.9244137086876154  0.5574952510425645  0.5657479840660464  1.0000
  H   H16       1.0  0.07558629084981187  0.44250474850982646  0.43425201661805257  1.0000
  H   H17       1.0  0.7500646350516342  0.6462612058025248  0.683524579570066  1.0000
  H   H18       1.0  0.24993536561002036  0.3537387940349974  0.31647542024510256  1.0000
  H   H19       1.0  0.6834736193734257  0.5573269840032995  0.8974314098334637  1.0000
  H   H20       1.0  0.3165263802694256  0.4426730166356819  0.10256858998223756  1.0000
  H   H21       1.0  0.5774730612314262  0.35848050670441445  0.9382756982679279  1.0000
  H   H22       1.0  0.4225269383060012  0.6415194928479765  0.061724302416171  1.0000
  H   H23       1.0  0.37964292898480895  0.2640210262091273  0.012391833284868696  1.0000
  H   H24       1.0  0.6203570706580422  0.7359789744298544  0.9876081665308326  1.0000
  H   H25       1.0  0.31967272785831086  0.1294377051758195  0.215903197998805  1.0000
  H   H26       1.0  0.6803272725554003  0.870562294376778  0.7840968026865199  1.0000
  H   H27       1.0  0.45983003814968837  0.08550083707789184  0.3429703132641017  1.0000
  H   H28       1.0  0.5401699625119663  0.9144991627596304  0.6570296865510667  1.0000
  H   H29       1.0  0.658003262851429  0.1782259438068963  0.2700823663282397  1.0000
  H   H30       1.0  0.341996736933942  0.8217740560304191  0.7299176334857029  1.0000
  H   H31       1.0  0.8968453656820011  0.5529381226047385  0.998859517253191  1.0000
  H   H32       1.0  0.10315463410336996  0.4470618772325769  0.0011404825607514014  1.0000
  H   H33       1.0  0.8569268269233105  0.7068101853650133  0.0857314351779044  1.0000
  H   H34       1.0  0.14307317373834433  0.2931898144725088  0.914268564637264  1.0000
  H   H35       1.0  0.6700612540098956  0.7073409498206179  0.2473272768879071  1.0000
  H   H36       1.0  0.32993874650923943  0.29265905081857024  0.7526727229290202  1.0000
  H   H37       1.0  0.5193481286888681  0.5582019861910995  0.31974812737266967  1.0000
  H   H38       1.0  0.48065187183026686  0.4417980144480889  0.6802518724442577  1.0000
  H   H39       1.0  0.5575370044296157  0.40402265173464885  0.23468788654570052  1.0000
  H   H40       1.0  0.44246299510781156  0.5959773478177421  0.7653121141383984  1.0000
  C   C1        1.0  0.7787016694721772  0.19142153700123124  0.5066228822660518  1.0000
  C   C2        1.0  0.22129833118947753  0.8085784628362909  0.49337711754911656  1.0000
  C   C3        1.0  0.6870798234855504  0.2727318265705809  0.509133599927562  1.0000
  C   C4        1.0  0.3129201770335844  0.7272681740686074  0.4908663998893653  1.0000
  C   C5        1.0  0.5586370836194556  0.01553474181635843  0.9809871342859212  1.0000
  C   C6        1.0  0.44136291704219893  0.9844652580211639  0.019012865529247358  1.0000
  C   C7        1.0  0.17692033341882726  0.18093015975767807  0.687432598700067  1.0000
  C   C8        1.0  0.8230796663665438  0.8190698400796373  0.3125674011138755  1.0000
  C   C9        1.0  0.8834419479717681  0.25732322420702247  0.11313293663470977  1.0000
  C   C10       1.0  0.11655805268988664  0.7426767756304996  0.8868670631804586  1.0000
  C   C11       1.0  0.9503132680554578  0.28862927568539004  0.17216323499538377  1.0000
  C   C12       1.0  0.04968673133944976  0.7113707246686669  0.827836765690474  1.0000
  C   C13       1.0  0.0429644182364148  0.21375604292489678  0.21314248593237892  1.0000
  C   C14       1.0  0.9570355814064363  0.7862439577140847  0.7868575138833224  1.0000
  C   C15       1.0  0.06742345639668648  0.10793841288282559  0.1972727708641588  1.0000
  C   C16       1.0  0.9325765438745048  0.8920615874714382  0.8027272298229248  1.0000
  C   C17       1.0  0.999799913840075  0.07616458977084373  0.13986358222888187  1.0000
  C   C18       1.0  0.000200086573635845  0.923835409781754  0.860136418456443  1.0000
  C   C19       1.0  0.9079152708228113  0.1505551863330327  0.09752245845089048  1.0000
  C   C20       1.0  0.09208472896255965  0.8494448135042827  0.902477541363052  1.0000
  C   C21       1.0  0.816675583180022  0.4131736260826681  0.9002460426765461  1.0000
  C   C22       1.0  0.1833244166053489  0.5868263737546472  0.09975395713739639  1.0000
  C   C23       1.0  0.913036826524449  0.3610844723677169  0.833916484503395  1.0000
  C   C24       1.0  0.08696317399468577  0.6389155282714715  0.16608351531353235  1.0000
  C   C25       1.0  0.9514795772659957  0.41328354375508153  0.7135717174751862  1.0000
  C   C26       1.0  0.04852042339565881  0.5867164560824406  0.2864282823399823  1.0000
  C   C27       1.0  0.8934631088214467  0.5157605337230897  0.6595830702937584  1.0000
  C   C28       1.0  0.1065368909639242  0.4842394661142257  0.3404169295201841  1.0000
  C   C29       1.0  0.7959538358049149  0.56656788463921  0.7255848976910668  1.0000
  C   C30       1.0  0.2040461648567398  0.43343211519831204  0.27441510212410164  1.0000
  C   C31       1.0  0.7575067092766519  0.5160424497917937  0.8459052949174979  1.0000
  C   C32       1.0  0.2424932911370592  0.483957549760804  0.1540947057678271  1.0000
  C   C33       1.0  0.6289427469392364  0.27630514948619345  0.1004158814642298  1.0000
  C   C34       1.0  0.3710572528461346  0.7236948503511219  0.8995841183497126  1.0000
  C   C35       1.0  0.5509845032738813  0.3002554298451517  0.02742139708555073  1.0000
  C   C36       1.0  0.4490154965114896  0.6997445699921637  0.9725786027283919  1.0000
  C   C37       1.0  0.43948774936351287  0.247349642009506  0.06941387532661007  1.0000
  C   C38       1.0  0.5605122502793382  0.7526503586294756  0.9305861244890913  1.0000
  C   C39       1.0  0.4061950966688773  0.17153203839655679  0.18329470359496158  1.0000
  C   C40       1.0  0.5938049031164936  0.8284679614407586  0.8167052962189809  1.0000
  C   C41       1.0  0.48481676340621793  0.14656059971473298  0.2550927928557436  1.0000
  C   C42       1.0  0.5151832363791531  0.8534394001225823  0.744907206958199  1.0000
  C   C43       1.0  0.5963989919418795  0.1986513049057903  0.214061288153492  1.0000
  C   C44       1.0  0.4036010077009715  0.8013486957331913  0.7859387116622094  1.0000
  C   C45       1.0  0.730747090664665  0.46752223260999565  0.11289239806406803  1.0000
  C   C46       1.0  0.2692529091207059  0.5324777672273198  0.8871076017498744  1.0000
  C   C47       1.0  0.8151122625456644  0.5531475156901183  0.07033081670692906  1.0000
  C   C48       1.0  0.18488773723970658  0.44685248414719725  0.9296691831070135  1.0000
  C   C49       1.0  0.7927647624967806  0.6395168481369411  0.11850666422741717  1.0000
  C   C50       1.0  0.2072352370406467  0.36048315141544973  0.8814933364566817  1.0000
  C   C51       1.0  0.6868708869676963  0.6404529573695801  0.2089191940398634  1.0000
  C   C52       1.0  0.31312911281767464  0.3595470424677354  0.791080805774079  1.0000
  C   C53       1.0  0.6021450445822464  0.5567155401280994  0.2496552656728677  1.0000
  C   C54       1.0  0.39785495607940813  0.44328445970942293  0.7503447341423007  1.0000
  C   C55       1.0  0.6233404357103671  0.4699588408914879  0.20192647971041752  1.0000
  C   C56       1.0  0.376659563932484  0.5300411597474936  0.7980735201052839  1.0000
  N   N1        1.0  0.14041597400786685  0.15916412098895635  0.789679912438206  1.0000
  N   N2        1.0  0.8595840257775041  0.8408358788483592  0.21032008737573654  1.0000
  P   P1        1.0  0.7657529999955686  0.35225388651636474  0.05589103117521504  1.0000
  P   P2        1.0  0.23424699964728266  0.6477461141226168  0.9441089686404864  1.0000
  S   S1        1.0  0.22556864944859323  0.21303564560409835  0.545590749448139  1.0000
  S   S2        1.0  0.774431350194258  0.7869643550348832  0.4544092503675624  1.0000
  I   I1        1.0  0.7626561953458145  0.03617267991642989  0.4845123209177597  1.0000
  I   I2        1.0  0.23734380443955652  0.9638273199208854  0.5154876788961829  1.0000
  I   I3        1.0  0.9540005555936473  0.2024720491153146  0.5256940877779004  1.0000
  I   I4        1.0  0.04599944506800756  0.7975279507222077  0.4743059120372681  1.0000
  I   I5        1.0  0.50337829737389  0.2510752173778323  0.515929378648263  1.0000
  I   I6        1.0  0.496621702411481  0.748924782459483  0.48407062116567945  1.0000
  I   I7        1.0  0.7128279363659703  0.43136593083116304  0.5172702198996958  1.0000
  I   I8        1.0  0.2871720634194008  0.5686340690061523  0.4827297799142467  1.0000
  I   I9        1.0  0.6893372947635608  0.9504506416953862  0.07770780043102415  1.0000
  I   I10       1.0  0.31066270589809386  0.04954935814213609  0.9222921993841442  1.0000
  I   I11       1.0  0.6293281526861106  0.13155199661574113  0.8131550779120268  1.0000
  I   I12       1.0  0.3706718470992602  0.8684480032215743  0.18684492190191573  1.0000
