data_image0
_chemical_formula_structural       H120C84N20O8S8Br8
_chemical_formula_sum              "H120 C84 N20 O8 S8 Br8"
_cell_length_a       9.632695933461047
_cell_length_b       24.80741194530987
_cell_length_c       10.902868764011975
_cell_angle_alpha    90.0
_cell_angle_beta     90.0808845985347
_cell_angle_gamma    90.0

_space_group_name_H-M_alt    "P 1"
_space_group_IT_number       1

loop_
  _space_group_symop_operation_xyz
  'x, y, z'

loop_
  _atom_site_type_symbol
  _atom_site_label
  _atom_site_symmetry_multiplicity
  _atom_site_fract_x
  _atom_site_fract_y
  _atom_site_fract_z
  _atom_site_occupancy
  H   H1        1.0  0.6611613638965597  0.5958376420960976  0.11411242683856775  1.0000
  H   H2        1.0  0.3388386367082688  0.0958376422031195  0.38588757351362746  1.0000
  H   H3        1.0  0.3388386369842027  0.404162358092964  0.8858875738347448  1.0000
  H   H4        1.0  0.6611613631315194  0.9041623579859421  0.6141124262437146  1.0000
  H   H5        1.0  0.5826444874144682  0.56540124543914  0.9804350515057115  1.0000
  H   H6        1.0  0.417355512701254  0.06540124554616188  0.519564948572748  1.0000
  H   H7        1.0  0.41735551242532004  0.4345987543468163  0.019564948251630753  1.0000
  H   H8        1.0  0.5826444871385343  0.9345987546428998  0.4804350511845943  1.0000
  H   H9        1.0  0.5635056235598565  0.5338181914822306  0.1302031490951844  1.0000
  H   H10       1.0  0.43649437704212596  0.03381819158925249  0.3697968503398209  1.0000
  H   H11       1.0  0.43649437627993176  0.46618180870683096  0.8697968506621578  1.0000
  H   H12       1.0  0.5635056227976624  0.9661818085998092  0.6302031494175212  1.0000
  H   H13       1.0  0.31768541025329083  0.522751769051498  0.10480803507993426  1.0000
  H   H14       1.0  0.6823145903486916  0.02275176915851993  0.39519196435507115  1.0000
  H   H15       1.0  0.6823145906246256  0.47724823113756354  0.8951919646761882  1.0000
  H   H16       1.0  0.31768540949109664  0.9772482310305416  0.6048080354022711  1.0000
  H   H17       1.0  0.31033004736433006  0.5541482416749655  0.954403447603456  1.0000
  H   H18       1.0  0.6896699527513922  0.05414824137888202  0.5455965524750035  1.0000
  H   H19       1.0  0.6896699524754583  0.44585175851409614  0.04559655215388633  1.0000
  H   H20       1.0  0.3103300470883962  0.9458517584070743  0.4544034472823387  1.0000
  H   H21       1.0  0.19171864733499036  0.5755297582624015  0.07443006889053602  1.0000
  H   H22       1.0  0.80828135223171  0.07552975836942331  0.4255699314628789  1.0000
  H   H23       1.0  0.8082813525047979  0.42447024152355484  0.9255699308668062  1.0000
  H   H24       1.0  0.19171864761092425  0.9244702418196383  0.5744300692116532  1.0000
  H   H25       1.0  0.9888609243209298  0.48446770975124703  0.16356879490994924  1.0000
  H   H26       1.0  0.011139075245770607  0.9844677100473304  0.33643120544346566  1.0000
  H   H27       1.0  0.011139075521704499  0.5155322900347094  0.836431205764583  1.0000
  H   H28       1.0  0.9888609245940176  0.015532290141731147  0.6635687943138765  1.0000
  H   H29       1.0  0.07431865967864695  0.45255393326600263  0.03529321138236676  1.0000
  H   H30       1.0  0.9256813409261815  0.9525539331589807  0.4647067889698285  1.0000
  H   H31       1.0  0.9256813411992695  0.5474460665199536  0.9647067883737558  1.0000
  H   H32       1.0  0.07431865891645274  0.047446066626975494  0.5352932117047037  1.0000
  H   H33       1.0  0.16411801825699823  0.4594652003654477  0.18086419997591852  1.0000
  H   H34       1.0  0.8358819813068561  0.9594652006615312  0.31913579946030646  1.0000
  H   H35       1.0  0.8358819815827899  0.5405347994205085  0.8191357997814238  1.0000
  H   H36       1.0  0.16411801853293212  0.04053479952753046  0.6808642002970358  1.0000
  H   H37       1.0  0.23835403380597836  0.36466091585625104  0.16311845739397957  1.0000
  H   H38       1.0  0.761645965757876  0.8646609161523345  0.33688154204224546  1.0000
  H   H39       1.0  0.7616459660338099  0.6353390839297052  0.8368815423633627  1.0000
  H   H40       1.0  0.23835403408191225  0.1353390840367271  0.6631184577150967  1.0000
  H   H41       1.0  0.13855656529144658  0.35427871030543406  0.02338130101294957  1.0000
  H   H42       1.0  0.8614434342724078  0.8542787106015175  0.4766186984232754  1.0000
  H   H43       1.0  0.8614434345483418  0.6457212894805222  0.9766186987443928  1.0000
  H   H44       1.0  0.13855656556738047  0.14572128958754407  0.5233813013340667  1.0000
  H   H45       1.0  0.12303733974006624  0.3076243570600599  0.14842222296949328  1.0000
  H   H46       1.0  0.876962659823788  0.8076243569530381  0.3515777764667318  1.0000
  H   H47       1.0  0.8769626600997221  0.6923756431290016  0.8515777767878491  1.0000
  H   H48       1.0  0.12303734001600011  0.1923756428329182  0.6484222232906105  1.0000
  H   H49       1.0  0.8493520399415597  0.6077591359888095  0.5921532638812158  1.0000
  H   H50       1.0  0.15064796017416243  0.1077591360958314  0.9078467361972435  1.0000
  H   H51       1.0  0.15064796093635666  0.39224086379714673  0.4078467358749067  1.0000
  H   H52       1.0  0.8493520396656258  0.8922408640932301  0.0921532635600986  1.0000
  H   H53       1.0  0.5262147246019542  0.6128700238266668  0.3324785650871488  1.0000
  H   H54       1.0  0.4737852749647461  0.1128700239336887  0.16752143526626612  1.0000
  H   H55       1.0  0.47378527524068  0.38712997595928944  0.6675214355873834  1.0000
  H   H56       1.0  0.5262147248750422  0.8871299758522676  0.8324785644910762  1.0000
  H   H57       1.0  0.9212059253776096  0.3729378143272671  0.6577189897067498  1.0000
  H   H58       1.0  0.07879407473811266  0.8729378146233505  0.8422810103717095  1.0000
  H   H59       1.0  0.07879407446217877  0.6270621854586892  0.34228101005059236  1.0000
  H   H60       1.0  0.9212059251045216  0.12706218556571106  0.15771899030282255  1.0000
  H   H61       1.0  0.6303550516812243  0.41218167588550825  0.3887173762760668  1.0000
  H   H62       1.0  0.3696449489236042  0.9121816757784864  0.11128262407612845  1.0000
  H   H63       1.0  0.36964494816141  0.587818323900448  0.6112826243984654  1.0000
  H   H64       1.0  0.630355050916184  0.08781832400746983  0.8887173756812138  1.0000
  H   H65       1.0  0.8517176736163229  0.720586273546348  0.6558836374385542  1.0000
  H   H66       1.0  0.14828232649939926  0.22058627365336989  0.8441163626399052  1.0000
  H   H67       1.0  0.14828232622631138  0.27941372623960825  0.34411636323597794  1.0000
  H   H68       1.0  0.8517176743785172  0.7794137261325863  0.15588363711621733  1.0000
  H   H69       1.0  0.7227419057735098  0.8049182358893818  0.6119183093456496  1.0000
  H   H70       1.0  0.27725809434221227  0.3049182359964037  0.88808169073281  1.0000
  H   H71       1.0  0.27725809406627844  0.19508176389657442  0.3880816904116927  1.0000
  H   H72       1.0  0.7227419065385501  0.6950817641926579  0.1119183099405026  1.0000
  H   H73       1.0  0.5334714092951901  0.8070852938686067  0.45639984250110355  1.0000
  H   H74       1.0  0.4665285902715102  0.3070852939756285  0.04360015785231146  1.0000
  H   H75       1.0  0.4665285905445981  0.1929147059173496  0.5436001572562388  1.0000
  H   H76       1.0  0.5334714095711239  0.6929147058103278  0.9563998428222208  1.0000
  H   H77       1.0  0.4651578586387066  0.7234290912556469  0.3427374248005522  1.0000
  H   H78       1.0  0.5348421419632758  0.22342909136266878  0.15726257463445317  1.0000
  H   H79       1.0  0.5348421412010818  0.27657090853030936  0.65726257495679  1.0000
  H   H80       1.0  0.4651578589146404  0.7765709084232876  0.8427374251216695  1.0000
  H   H81       1.0  0.5983404984657223  0.5155228843780243  0.4707659015237511  1.0000
  H   H82       1.0  0.40165950109813203  0.015522884081940854  0.029234097912473903  1.0000
  H   H83       1.0  0.4016595013740659  0.4844771158110373  0.5292340982335911  1.0000
  H   H84       1.0  0.5983404987416563  0.9844771157040154  0.9707659018448683  1.0000
  H   H85       1.0  0.7112698164185086  0.5216514458875914  0.34502210986992576  1.0000
  H   H86       1.0  0.2887301831481918  0.021651445994613237  0.15497789048348917  1.0000
  H   H87       1.0  0.2887301834212797  0.4783485538983649  0.6549778898874165  1.0000
  H   H88       1.0  0.7112698166944424  0.9783485537913431  0.845022110191043  1.0000
  H   H89       1.0  0.664269897148553  0.47180154970630905  0.6346075781756402  1.0000
  H   H90       1.0  0.33573010296716915  0.9718015495992872  0.8653924219028194  1.0000
  H   H91       1.0  0.33573010372936335  0.5281984504827526  0.36539242158048246  1.0000
  H   H92       1.0  0.6642698968726192  0.028198450589774417  0.13460757785452293  1.0000
  H   H93       1.0  0.8372851370624956  0.46182942522410286  0.6779535805853788  1.0000
  H   H94       1.0  0.16271486305322658  0.9618294251170809  0.8220464194930807  1.0000
  H   H95       1.0  0.16271486277729272  0.5381705749649588  0.32204641917196347  1.0000
  H   H96       1.0  0.8372851367865617  0.03817057466887532  0.17795358026426156  1.0000
  H   H97       1.0  0.9681041474111939  0.26098945687174246  0.5879803169455087  1.0000
  H   H98       1.0  0.03189585270452839  0.7609894567647207  0.9120196831329508  1.0000
  H   H99       1.0  0.031895852428594496  0.7390105433173192  0.4120196828118336  1.0000
  H   H100      1.0  0.968104148173388  0.23901054342434097  0.08798031662317175  1.0000
  H   H101      1.0  0.8926525700717496  0.1940106021785128  0.42798809315804137  1.0000
  H   H102      1.0  0.10734742949495076  0.6940106020714909  0.07201190719537358  1.0000
  H   H103      1.0  0.10734742977088464  0.8059893980105488  0.5720119075164908  1.0000
  H   H104      1.0  0.8926525703448376  0.30598939811757064  0.9279880925619687  1.0000
  H   H105      1.0  0.7201851430021797  0.21825843590361552  0.27170700084010074  1.0000
  H   H106      1.0  0.2798148565645206  0.7182584357965935  0.22829299951331414  1.0000
  H   H107      1.0  0.2798148568404545  0.7817415642854462  0.7282929998344314  1.0000
  H   H108      1.0  0.7201851432752676  0.2817415639893627  0.7717070002440279  1.0000
  H   H109      1.0  0.6168482386539512  0.3115408127634679  0.2626257095665481  1.0000
  H   H110      1.0  0.3831517609127492  0.8115408126564461  0.23737429078686678  1.0000
  H   H111      1.0  0.3831517611886831  0.6884591874255936  0.7373742911079841  1.0000
  H   H112      1.0  0.6168482389270391  0.18845918753261554  0.7626257089704755  1.0000
  H   H113      1.0  0.9523624384162271  0.5385284724360684  0.3973347678772213  1.0000
  H   H114      1.0  0.047637561150473226  0.038528472543090234  0.1026652324761937  1.0000
  H   H115      1.0  0.04763756142356112  0.4614715277529932  0.6026652318801211  1.0000
  H   H116      1.0  0.9523624386921611  0.9614715276459714  0.8973347681983386  1.0000
  H   H117      1.0  0.939648756344545  0.4673055938103097  0.3933522985144006  1.0000
  H   H118      1.0  0.0603512432221553  0.967305593703288  0.10664770183901437  1.0000
  H   H119      1.0  0.060351243495243186  0.5326944063787519  0.6066477012429417  1.0000
  H   H120      1.0  0.939648756620479  0.03269440648577374  0.8933522988355178  1.0000
  C   C1        1.0  0.5728414799714233  0.5721332596600581  0.07993141267577325  1.0000
  C   C2        1.0  0.42715852063340504  0.07213325976707999  0.420068587676422  1.0000
  C   C3        1.0  0.4271585209064929  0.4278667405290035  0.9200685870803492  1.0000
  C   C4        1.0  0.5728414792063833  0.9278667404219816  0.5799314120809202  1.0000
  C   C5        1.0  0.2958826758576261  0.559924326270807  0.053611507483226496  1.0000
  C   C6        1.0  0.7041173247443564  0.05992432637782889  0.4463884919517789  1.0000
  C   C7        1.0  0.7041173239821622  0.44007567351514926  0.9463884922741157  1.0000
  C   C8        1.0  0.2958826750954319  0.9400756734081274  0.5536115078055635  1.0000
  C   C9        1.0  0.06335796122610322  0.453350590734487  0.1356804805179676  1.0000
  C   C10       1.0  0.9366420383405971  0.9533505906274652  0.3643195198354473  1.0000
  C   C11       1.0  0.9366420386136849  0.5466494094545746  0.8643195192393747  1.0000
  C   C12       1.0  0.06335796150203712  0.04664940915849111  0.6356804808390849  1.0000
  C   C13       1.0  0.14043955056987856  0.34985693707726223  0.12372242271087025  1.0000
  C   C14       1.0  0.85956045003495  0.8498569373733457  0.376277577641325  1.0000
  C   C15       1.0  0.8595604503108838  0.650143062708694  0.8762775779624422  1.0000
  C   C16       1.0  0.14043954980483836  0.15014306281571588  0.6237224221160172  1.0000
  C   C17       1.0  0.7262525477191081  0.6745713320233644  0.5272080950673343  1.0000
  C   C18       1.0  0.2737474523966142  0.17457133213038623  0.972791905011125  1.0000
  C   C19       1.0  0.27374745212068025  0.32542866776259194  0.4727919046900079  1.0000
  C   C20       1.0  0.7262525484813022  0.8254286676555701  0.027208094744997472  1.0000
  C   C21       1.0  0.7667854003571216  0.7209685826731892  0.5901214629394943  1.0000
  C   C22       1.0  0.23321459975860062  0.22096858278021103  0.9098785371389652  1.0000
  C   C23       1.0  0.2332145994855127  0.27903141751587246  0.4098785377350379  1.0000
  C   C24       1.0  0.7667854000811877  0.7790314174088506  0.09012146261837703  1.0000
  C   C25       1.0  0.694020271191797  0.768080994583653  0.56341156794653  1.0000
  C   C26       1.0  0.3059797289239252  0.26808099469067487  0.9365884321319294  1.0000
  C   C27       1.0  0.30597972864799133  0.23191900520230327  0.43658843181081225  1.0000
  C   C28       1.0  0.694020270915863  0.7319190054983867  0.0634115676254128  1.0000
  C   C29       1.0  0.587252024743141  0.7693087905370216  0.4748244297822658  1.0000
  C   C30       1.0  0.4127479748235594  0.2693087906440435  0.02517557057114907  1.0000
  C   C31       1.0  0.41274797509664735  0.2306912092489346  0.5251755699750763  1.0000
  C   C32       1.0  0.5872520250190748  0.7306912091419128  0.9748244301033829  1.0000
  C   C33       1.0  0.547592137465727  0.7232290010563572  0.4109459322937489  1.0000
  C   C34       1.0  0.4524078620981273  0.22322900116337901  0.0890540671424762  1.0000
  C   C35       1.0  0.4524078623740613  0.2767709987295991  0.5890540674635935  1.0000
  C   C36       1.0  0.5475921377416609  0.7767709986225773  0.910945932614866  1.0000
  C   C37       1.0  0.6180375001766767  0.6758612561827465  0.4399999314845706  1.0000
  C   C38       1.0  0.38196249939002375  0.17586125628976834  0.06000006886884438  1.0000
  C   C39       1.0  0.38196249966311163  0.32413874360320977  0.5600000682727717  1.0000
  C   C40       1.0  0.6180375004526105  0.8241387438992932  0.9399999318056879  1.0000
  C   C41       1.0  0.6928922284280774  0.5914498534690547  0.45697724442190457  1.0000
  C   C42       1.0  0.30710777217675117  0.09144985357607656  0.043022755930290736  1.0000
  C   C43       1.0  0.307107771411711  0.4085501463169016  0.5430227553354378  1.0000
  C   C44       1.0  0.6928922287040112  0.9085501466129849  0.9569772447430218  1.0000
  C   C45       1.0  0.7000453298904619  0.5315696131088407  0.443472663918256  1.0000
  C   C46       1.0  0.2999546696762385  0.03156961321586251  0.0565273364351589  1.0000
  C   C47       1.0  0.2999546699493264  0.4684303866771157  0.5565273358390862  1.0000
  C   C48       1.0  0.7000453301635498  0.968430386973199  0.9434726633221834  1.0000
  C   C49       1.0  0.7683261343828275  0.4638103259366937  0.5975794945569162  1.0000
  C   C50       1.0  0.2316738657328948  0.9638103258296719  0.9024205055215433  1.0000
  C   C51       1.0  0.2316738654598069  0.5361896742523679  0.40242050611761593  1.0000
  C   C52       1.0  0.7683261341068934  0.036189674359389766  0.09757949423579898  1.0000
  C   C53       1.0  0.7731311041189445  0.40873654423741806  0.5403426767550262  1.0000
  C   C54       1.0  0.22686889599677762  0.9087365445335014  0.9596573233234332  1.0000
  C   C55       1.0  0.22686889572368973  0.5912634555485383  0.4596573239195059  1.0000
  C   C56       1.0  0.7731311038430108  0.09126345565556013  0.040342676433908944  1.0000
  C   C57       1.0  0.8343445780578598  0.3229050522343773  0.5119587755589898  1.0000
  C   C58       1.0  0.1656554220578625  0.8229050521273554  0.9880412245194695  1.0000
  C   C59       1.0  0.1656554228200567  0.677094947551579  0.48804122419713275  1.0000
  C   C60       1.0  0.8343445777819256  0.1770949476586008  0.011958775237872622  1.0000
  C   C61       1.0  0.892194701803269  0.271426666951166  0.5178413480691231  1.0000
  C   C62       1.0  0.10780529830960725  0.7714266668441442  0.9821586510921465  1.0000
  C   C63       1.0  0.10780529803651939  0.7285733328347903  0.4821586516882192  1.0000
  C   C64       1.0  0.892194701530181  0.22857333294181212  0.017841348665195694  1.0000
  C   C65       1.0  0.8489814148959832  0.23463527041161059  0.4290577902715569  1.0000
  C   C66       1.0  0.15101858467071708  0.7346352707076941  0.07094221008185805  1.0000
  C   C67       1.0  0.151018584946651  0.7653647293743457  0.5709422104029752  1.0000
  C   C68       1.0  0.8489814151690712  0.2653647294813676  0.9290577896754842  1.0000
  C   C69       1.0  0.7512396838466054  0.24886155370057425  0.33812943081102526  1.0000
  C   C70       1.0  0.24876031675822313  0.7488615535935524  0.16187056954117  1.0000
  C   C71       1.0  0.248760317034157  0.751138446085382  0.6618705698622872  1.0000
  C   C72       1.0  0.7512396830815651  0.2511384461924039  0.8381294302161723  1.0000
  C   C73       1.0  0.6928889119252347  0.30024260557370136  0.33209906938611355  1.0000
  C   C74       1.0  0.30711108764146566  0.8002426054666796  0.16790093096730135  1.0000
  C   C75       1.0  0.3071110879145535  0.6997573946153601  0.6679009303712287  1.0000
  C   C76       1.0  0.6928889122011687  0.19975739431927675  0.8320990697072308  1.0000
  C   C77       1.0  0.7362147566526341  0.3370125871425549  0.4211126150611156  1.0000
  C   C78       1.0  0.2637852429112202  0.8370125870355329  0.07888738437510948  1.0000
  C   C79       1.0  0.2637852431871541  0.6629874130465068  0.5788873846962268  1.0000
  C   C80       1.0  0.7362147569285681  0.16298741275042322  0.9211126153822328  1.0000
  C   C81       1.0  0.939774780290742  0.5025763065283054  0.455262974216858  1.0000
  C   C82       1.0  0.060225220314086385  0.002576306635327318  0.04473702613533723  1.0000
  C   C83       1.0  0.06022522059002028  0.4974236932576508  0.5447370264564544  1.0000
  C   C84       1.0  0.9397747795257019  0.9974236935537343  0.955262973622005  1.0000
  N   N1        1.0  0.7700525516511437  0.6212970673433736  0.5334970824227744  1.0000
  N   N2        1.0  0.22994744846457835  0.12129706745039556  0.9665029176556851  1.0000
  N   N3        1.0  0.22994744818864443  0.3787029324425826  0.46650291733456783  1.0000
  N   N4        1.0  0.77005255137521  0.8787029327386661  0.03349708210165718  1.0000
  N   N5        1.0  0.6014702165667294  0.623378363454142  0.39882323177426804  1.0000
  N   N6        1.0  0.398529782999971  0.12337836315805852  0.10117676857914693  1.0000
  N   N7        1.0  0.3985297832730589  0.3766216367349196  0.6011767679830743  1.0000
  N   N8        1.0  0.6014702168398173  0.8766216366278977  0.8988232311781954  1.0000
  N   N9        1.0  0.8544842255613556  0.36874100813766847  0.5821123835360907  1.0000
  N   N10       1.0  0.1455157745543665  0.8687410080306466  0.9178876165423688  1.0000
  N   N11       1.0  0.1455157742784326  0.6312589916482879  0.4178876162212515  1.0000
  N   N12       1.0  0.8544842252854219  0.1312589917553097  0.08211238321497355  1.0000
  N   N13       1.0  0.701325151582752  0.39051447451903837  0.4427450688697239  1.0000
  N   N14       1.0  0.2986748490192305  0.8905144744120165  0.05725493056528144  1.0000
  N   N15       1.0  0.29867484825703633  0.6094855256700232  0.5572549308876183  1.0000
  N   N16       1.0  0.7013251518586858  0.1094855257770451  0.9427450691908412  1.0000
  N   N17       1.0  0.8081622856738393  0.5087431477263017  0.5197999591819422  1.0000
  N   N18       1.0  0.19183771444188288  0.008743147430218189  0.9802000408965171  1.0000
  N   N19       1.0  0.191837714165949  0.49125685246275996  0.4802000405754  1.0000
  N   N20       1.0  0.8081622854007514  0.9912568523557381  0.01979995977801492  1.0000
  O   O1        1.0  0.39717716530378483  0.6165733569354384  0.23971075119861013  1.0000
  O   O2        1.0  0.6028228353010436  0.1165733570424602  0.26028924915358514  1.0000
  O   O3        1.0  0.6028228345360035  0.3834266428505179  0.7602892485587321  1.0000
  O   O4        1.0  0.39717716453874463  0.8834266431466014  0.7397107506037571  1.0000
  O   O5        1.0  0.0072092172196177315  0.38655106994395577  0.32101780125365004  1.0000
  O   O6        1.0  0.9927907823470825  0.886551069836934  0.1789821990997649  1.0000
  O   O7        1.0  0.9927907826201705  0.6134489298420005  0.6789821985036922  1.0000
  O   O8        1.0  0.007209217495551624  0.11344892994902236  0.8210178015747671  1.0000
  S   S1        1.0  0.4171727996730213  0.6105851196163864  0.10131267162489799  1.0000
  S   S2        1.0  0.5828271998936793  0.11058511972340825  0.3986873287285169  1.0000
  S   S3        1.0  0.5828272001696131  0.38941488016956993  0.898687329049634  1.0000
  S   S4        1.0  0.41717279994610906  0.8894148804656534  0.6013126710288254  1.0000
  S   S5        1.0  0.9977121536968561  0.3885942810661697  0.18198763234107804  1.0000
  S   S6        1.0  0.002287845869844296  0.8885942809591478  0.31801236801233684  1.0000
  S   S7        1.0  0.0022878461429321874  0.6114057191228919  0.8180123674162643  1.0000
  S   S8        1.0  0.99771215397279  0.11140571922991375  0.6819876326621953  1.0000
  Br  Br1       1.0  0.47818315401481154  0.4411189556623179  0.2547796965783303  1.0000
  Br  Br2       1.0  0.5218168455518888  0.941118955555296  0.24522030377508464  1.0000
  Br  Br3       1.0  0.5218168458278227  0.5588810445267437  0.7452203040962018  1.0000
  Br  Br4       1.0  0.4781831542878995  0.05888104423066025  0.7547796959822576  1.0000
  Br  Br5       1.0  0.06474173828107971  0.3923122988990391  0.80644592080102  1.0000
  Br  Br6       1.0  0.9352582618346424  0.8923122991951226  0.6935540792774396  1.0000
  Br  Br7       1.0  0.9352582615615547  0.6076877008869171  0.19355407987351222  1.0000
  Br  Br8       1.0  0.06474173800514581  0.107687700993939  0.3064459204799027  1.0000
