data_image0
_chemical_formula_structural       H48C36N24O12S12
_chemical_formula_sum              "H48 C36 N24 O12 S12"
_cell_length_a       14.300921556096247
_cell_length_b       5.1188251734148995
_cell_length_c       19.709551634043986
_cell_angle_alpha    90.0
_cell_angle_beta     91.56940955828729
_cell_angle_gamma    90.0

_space_group_name_H-M_alt    "P 1"
_space_group_IT_number       1

loop_
  _space_group_symop_operation_xyz
  'x, y, z'

loop_
  _atom_site_type_symbol
  _atom_site_label
  _atom_site_symmetry_multiplicity
  _atom_site_fract_x
  _atom_site_fract_y
  _atom_site_fract_z
  _atom_site_occupancy
  H   H1        1.0  0.4263877459786544  0.4677640882199992  0.33060707035820747  1.0000
  H   H2        1.0  0.5736122543952112  0.9677640869096499  0.16939292986128596  1.0000
  H   H3        1.0  0.5736122544082329  0.5322359130664484  0.669392929888237  1.0000
  H   H4        1.0  0.4263877459916762  0.032235912423224565  0.8306070703851585  1.0000
  H   H5        1.0  0.34384657371894606  0.6068994925113841  0.3864261271142356  1.0000
  H   H6        1.0  0.6561534259372233  0.10689949186816024  0.1135738725971643  1.0000
  H   H7        1.0  0.656153425950245  0.39310050682149034  0.6135738726241152  1.0000
  H   H8        1.0  0.3438465737319678  0.893100507464714  0.8864261271411864  1.0000
  H   H9        1.0  0.21514957748655533  0.5290986150623272  0.30235143455796587  1.0000
  H   H10       1.0  0.7848504221880349  0.02909861441910335  0.19764856566099231  1.0000
  H   H11       1.0  0.7848504222010566  0.4709013842705472  0.6976485656879433  1.0000
  H   H12       1.0  0.2151495774995771  0.970901384913771  0.8023514345849169  1.0000
  H   H13       1.0  0.30394170556930433  0.7341570326561725  0.26934454980304484  1.0000
  H   H14       1.0  0.6960582947861406  0.23415703201294863  0.23065544990889028  1.0000
  H   H15       1.0  0.6960582947991621  0.2658429666767019  0.7306554499358413  1.0000
  H   H16       1.0  0.3039417055823261  0.7658429673199257  0.7693445498299958  1.0000
  H   H17       1.0  0.38362209105028167  0.05543224868738864  0.09747888411880044  1.0000
  H   H18       1.0  0.6163779093235842  0.5554322473770392  0.40252111610069297  1.0000
  H   H19       1.0  0.6163779093366057  0.9445677525990589  0.902521116127644  1.0000
  H   H20       1.0  0.3836220910633034  0.44456775195583514  0.5974788841457515  1.0000
  H   H21       1.0  0.11286838842101247  0.939444930640577  0.2279276066752183  1.0000
  H   H22       1.0  0.8871316112351568  0.4394449299973532  0.2720723930361815  1.0000
  H   H23       1.0  0.8871316112481785  0.06055506869229732  0.7720723930631325  1.0000
  H   H24       1.0  0.11286838843403423  0.5605550693355211  0.7279276067021694  1.0000
  H   H25       1.0  0.10191560325409023  0.27448583462026277  0.2505294554524532  1.0000
  H   H26       1.0  0.8980843971013546  0.7744858352634866  0.2494705442594819  1.0000
  H   H27       1.0  0.8980843971143764  0.7255141647126117  0.7494705442864329  1.0000
  H   H28       1.0  0.10191560326711198  0.22551416406938776  0.7505294554794042  1.0000
  H   H29       1.0  0.16699179684349796  0.06099184078828756  0.30504529775077527  1.0000
  H   H30       1.0  0.8330082035119468  0.5609918394779381  0.1949547019611598  1.0000
  H   H31       1.0  0.8330082035249685  0.93900816049816  0.6949547019881109  1.0000
  H   H32       1.0  0.1669917968565197  0.4390081598549363  0.8050452977777264  1.0000
  H   H33       1.0  0.3890491111017966  0.10373252299331094  0.37252028324691455  1.0000
  H   H34       1.0  0.6109508885727937  0.6037325236365347  0.12747971697204363  1.0000
  H   H35       1.0  0.6109508885858154  0.8962674763395634  0.6274797169989946  1.0000
  H   H36       1.0  0.3890491110963974  0.39626747569633963  0.8725202827663071  1.0000
  H   H37       1.0  0.21777522182999637  0.7470079892275443  0.1078247319944159  1.0000
  H   H38       1.0  0.7822247778445939  0.24700799053789377  0.3921752682245423  1.0000
  H   H39       1.0  0.7822247778576157  0.25299201010533  0.8921752682514932  1.0000
  H   H40       1.0  0.2177752218430181  0.7529920107485538  0.6078247320213669  1.0000
  H   H41       1.0  0.0273992552459457  0.18388707723183367  0.044696712904839585  1.0000
  H   H42       1.0  0.9726007444286445  0.6838870778750575  0.4553032873141187  1.0000
  H   H43       1.0  0.9726007444416663  0.8161129221010407  0.9553032873410696  1.0000
  H   H44       1.0  0.027399255240546476  0.31611292341139013  0.5446967124242322  1.0000
  H   H45       1.0  0.27013610751027023  0.2968953809739378  0.9391416580570308  1.0000
  H   H46       1.0  0.7298638921903635  0.7968953796635885  0.5608583422158295  1.0000
  H   H47       1.0  0.7298638921773418  0.7031046203125098  0.06085834218887851  1.0000
  H   H48       1.0  0.2701361074972485  0.20310461966928597  0.43914165803007965  1.0000
  C   C1        1.0  0.353076208971455  0.4628275004007395  0.34559170992474847  1.0000
  C   C2        1.0  0.6469237906847144  0.9628275010439634  0.15440828978665141  1.0000
  C   C3        1.0  0.6469237906977361  0.5371724989321348  0.6544082898136024  1.0000
  C   C4        1.0  0.3530762089844767  0.03717250024248428  0.8455917099516994  1.0000
  C   C5        1.0  0.2879642614262774  0.5365308243508151  0.28647462142913416  1.0000
  C   C6        1.0  0.7120357382483129  0.03653082566116453  0.21352537878982406  1.0000
  C   C7        1.0  0.7120357382613347  0.46346917498205925  0.7135253788167751  1.0000
  C   C8        1.0  0.2879642614392992  0.9634691756252831  0.7864746214560853  1.0000
  C   C9        1.0  0.23453101395702805  0.16090371366415118  0.21336036247165777  1.0000
  C   C10       1.0  0.7654689857175622  0.660903714307375  0.2866396377473004  1.0000
  C   C11       1.0  0.765468985730584  0.8390962856687232  0.7866396377742515  1.0000
  C   C12       1.0  0.23453101397004983  0.3390962869790726  0.7133603624986088  1.0000
  C   C13       1.0  0.34523765096591963  0.12890863189214763  0.1402012061930244  1.0000
  C   C14       1.0  0.6547623494079461  0.6289086305817981  0.359798794026469  1.0000
  C   C15       1.0  0.654762349420968  0.8710913693943  0.8597987940534201  1.0000
  C   C16       1.0  0.3452376509789413  0.3710913687510762  0.6402012062199753  1.0000
  C   C17       1.0  0.3673245215746542  0.33672948413084847  0.18279923779002447  1.0000
  C   C18       1.0  0.6326754780999361  0.8367294828204991  0.3172007624289337  1.0000
  C   C19       1.0  0.6326754781129579  0.6632705171555991  0.8172007624558848  1.0000
  C   C20       1.0  0.36732452158767587  0.16327051651237537  0.6827992378169755  1.0000
  C   C21       1.0  0.14938391727414255  0.10550038176821085  0.25170054472669634  1.0000
  C   C22       1.0  0.8506160823820268  0.6055003824114347  0.24829945498470352  1.0000
  C   C23       1.0  0.8506160823950485  0.8944996175646636  0.7482994550116545  1.0000
  C   C24       1.0  0.14938391728716433  0.3944996169214397  0.7517005447536473  1.0000
  C   C25       1.0  0.2586069985794465  0.5288864921702152  0.02420289766624943  1.0000
  C   C26       1.0  0.7413930017759982  0.028886491526991444  0.4757971020456856  1.0000
  C   C27       1.0  0.7413930017890199  0.4711135071626591  0.9757971020726366  1.0000
  C   C28       1.0  0.2586069985924683  0.9711135078058829  0.5242028976932004  1.0000
  C   C29       1.0  0.11255367290803282  0.47852987101840566  0.0831460674406393  1.0000
  C   C30       1.0  0.8874463267481365  0.9785298716616295  0.41685393227076056  1.0000
  C   C31       1.0  0.8874463267611582  0.5214701283144687  0.9168539322977116  1.0000
  C   C32       1.0  0.11255367292105459  0.02147012767124486  0.5831460674675902  1.0000
  C   C33       1.0  0.14658149300422685  0.19679140542476803  0.9871528575381487  1.0000
  C   C34       1.0  0.8534185066964068  0.6967914060679918  0.5128471427347115  1.0000
  C   C35       1.0  0.8534185066833853  0.8032085939081064  0.01284714270776057  1.0000
  C   C36       1.0  0.14658149299120507  0.3032085952184558  0.4871528575111976  1.0000
  N   N1        1.0  0.29574735465857893  0.35731269540112326  0.2289458496779366  1.0000
  N   N2        1.0  0.7042526450160113  0.8573126960443471  0.2710541505410216  1.0000
  N   N3        1.0  0.7042526450290331  0.6426873039317511  0.7710541505679726  1.0000
  N   N4        1.0  0.2957473546716007  0.14268730524210055  0.7289458497048876  1.0000
  N   N5        1.0  0.2631777696206396  0.02232682034025322  0.1590877057826526  1.0000
  N   N6        1.0  0.7368222300539508  0.5223268190299037  0.34091229443630555  1.0000
  N   N7        1.0  0.7368222300669725  0.9776731809461944  0.8409122944632567  1.0000
  N   N8        1.0  0.26317776963366135  0.4776731803029706  0.6590877058096036  1.0000
  N   N9        1.0  0.4456083080112391  0.49925383138160556  0.17916620721841972  1.0000
  N   N10       1.0  0.5543916923442056  0.9992538320248294  0.32083379249351535  1.0000
  N   N11       1.0  0.5543916923572274  0.5007461679512688  0.8208337925204664  1.0000
  N   N12       1.0  0.44560830802426094  0.0007461673080450047  0.6791662072453708  1.0000
  N   N13       1.0  0.19867285624149936  0.5918658456504459  0.07517123407933811  1.0000
  N   N14       1.0  0.8013271441139453  0.0918658450072221  0.424828765632597  1.0000
  N   N15       1.0  0.8013271441269672  0.40813415368242845  0.924828765659548  1.0000
  N   N16       1.0  0.1986728562545211  0.9081341543256523  0.5751712341062891  1.0000
  N   N17       1.0  0.0917219261693637  0.27595965326896005  0.039132693328762895  1.0000
  N   N18       1.0  0.9082780734868056  0.7759596519586106  0.460867306382637  1.0000
  N   N19       1.0  0.9082780734998274  0.7240403480174875  0.960867306409588  1.0000
  N   N20       1.0  0.09172192618238546  0.22404034737426373  0.5391326933557139  1.0000
  N   N21       1.0  0.2282983277643046  0.3318574423722192  0.9815023575261808  1.0000
  N   N22       1.0  0.7717016719179082  0.8318574430154431  0.5184976422391212  1.0000
  N   N23       1.0  0.7717016719048866  0.6681425569606552  0.018497642212170182  1.0000
  N   N24       1.0  0.2282983277512828  0.1681425582710046  0.4815023574992297  1.0000
  O   O1        1.0  0.3303492846126987  0.2062336130334635  0.3692354927734976  1.0000
  O   O2        1.0  0.669650715761167  0.7062336136766874  0.1307645074459958  1.0000
  O   O3        1.0  0.6696507157741889  0.7937663862994109  0.6307645074729469  1.0000
  O   O4        1.0  0.33034928462572044  0.29376638565618707  0.8692354928004487  1.0000
  O   O5        1.0  0.45366308165611485  0.6931325684703981  0.21732323041692803  1.0000
  O   O6        1.0  0.5463369180000544  0.1931325697807475  0.28267676929447183  1.0000
  O   O7        1.0  0.5463369180130762  0.3068674308624763  0.7826767693214228  1.0000
  O   O8        1.0  0.45366308166913666  0.8068674315057002  0.717323230443879  1.0000
  O   O9        1.0  0.5044143014539642  0.4385259144340884  0.13544640515797263  1.0000
  O   O10       1.0  0.4955856982206262  0.9385259150773123  0.3645535950609856  1.0000
  O   O11       1.0  0.4955856982336479  0.561474084898786  0.8645535950879365  1.0000
  O   O12       1.0  0.5044143014485649  0.06147408425556213  0.6354464046773654  1.0000
  S   S1        1.0  0.36064796413901234  0.6724876848457636  0.013512779654521965  1.0000
  S   S2        1.0  0.639352035535578  0.17248768420253974  0.4864872205644362  1.0000
  S   S3        1.0  0.6393520355485998  0.327512316440684  0.9864872205913873  1.0000
  S   S4        1.0  0.3606479641520341  0.8275123170839079  0.513512779681473  1.0000
  S   S5        1.0  0.037581214296325036  0.5766741976910916  0.13999433705029438  1.0000
  S   S6        1.0  0.9624187853598442  0.07667419704786778  0.36000566266110545  1.0000
  S   S7        1.0  0.9624187853728661  0.42332580164178274  0.8600056626880564  1.0000
  S   S8        1.0  0.037581214309346786  0.9233258022850067  0.6399943370772454  1.0000
  S   S9        1.0  0.11648453747845806  0.9547810648785098  0.9344764768217031  1.0000
  S   S10       1.0  0.8835154622221756  0.4547810642352859  0.5655235234511571  1.0000
  S   S11       1.0  0.883515462209154  0.04521893445436463  0.06552352342420606  1.0000
  S   S12       1.0  0.11648453746543633  0.5452189350975885  0.43447647679475215  1.0000
