data_image0
_chemical_formula_structural       H16C22S16I8
_chemical_formula_sum              "H16 C22 S16 I8"
_cell_length_a       7.986875548340147
_cell_length_b       8.904596324408638
_cell_length_c       15.662949096876185
_cell_angle_alpha    87.23717406194017
_cell_angle_beta     85.46165414290705
_cell_angle_gamma    73.87906996237248

_space_group_name_H-M_alt    "P 1"
_space_group_IT_number       1

loop_
  _space_group_symop_operation_xyz
  'x, y, z'

loop_
  _atom_site_type_symbol
  _atom_site_label
  _atom_site_symmetry_multiplicity
  _atom_site_fract_x
  _atom_site_fract_y
  _atom_site_fract_z
  _atom_site_occupancy
  H   H1        1.0  0.646306780002482  0.7334074143078501  0.1524078511642448  1.0000
  H   H2        1.0  0.3536932198441249  0.2665925856070935  0.8475921487280572  1.0000
  H   H3        1.0  0.650680631158782  0.6512535056520333  0.05060092895914401  1.0000
  H   H4        1.0  0.34931936993715884  0.3487464942735033  0.9493990709290707  1.0000
  H   H5        1.0  0.3311298144481196  0.6678651915998829  0.07313272624412749  1.0000
  H   H6        1.0  0.6688701850252351  0.33213480948388974  0.9268672736502054  1.0000
  H   H7        1.0  0.368574793815188  0.8557936162182401  0.07724915226499286  1.0000
  H   H8        1.0  0.6314252072004006  0.14420638367162703  0.9227508482639034  1.0000
  H   H9        1.0  0.09282320835483361  0.049855549639829654  0.8014154460477377  1.0000
  H   H10       1.0  0.9071767914917733  0.9501444502751137  0.19858455384456422  1.0000
  H   H11       1.0  0.13398443540465696  0.015750798109745126  0.6887844805410501  1.0000
  H   H12       1.0  0.8660155656912839  0.9842492018157916  0.3112155193471645  1.0000
  H   H13       1.0  0.3231086536744427  0.9038442307950063  0.883587798561298  1.0000
  H   H14       1.0  0.6768913461721641  0.09615576911993709  0.11641220133100397  1.0000
  H   H15       1.0  0.5566975655865596  0.8651962659271342  0.8417967181781507  1.0000
  H   H16       1.0  0.44330243426004723  0.1348037339878093  0.15820328171415116  1.0000
  C   C1        1.0  0.584727671519295  0.6644649364948905  0.11531150815377425  1.0000
  C   C2        1.0  0.41527232920339385  0.3355350645994754  0.8846884917364713  1.0000
  C   C3        1.0  0.3910988955855147  0.7397268838807336  0.10910974201713686  1.0000
  C   C4        1.0  0.6089011042610921  0.26027311603420983  0.8908902578751652  1.0000
  C   C5        1.0  0.5070164692431378  0.4997319875116782  0.2550906481743054  1.0000
  C   C6        1.0  0.492983530603469  0.5002680124032652  0.7449093517179967  1.0000
  C   C7        1.0  0.361311547670135  0.6213903434106194  0.2747824577776727  1.0000
  C   C8        1.0  0.6386884521764719  0.37860965650432404  0.7252175421146293  1.0000
  C   C9        1.0  0.4009547841978756  0.43874215143760015  0.4092912473606483  1.0000
  C   C10       1.0  0.5990452156487314  0.5612578484773434  0.5907087525316537  1.0000
  C   C11       1.0  0.37746315858759855  0.362127955284138  0.4870583232388047  1.0000
  C   C12       1.0  0.6225368412590081  0.6378720446308055  0.5129416766534973  1.0000
  C   C13       1.0  0.4133278099767006  0.16136039208586883  0.6132652895587756  1.0000
  C   C14       1.0  0.5866721911192404  0.8386396078396677  0.38673471032943907  1.0000
  C   C15       1.0  0.26294238372394185  0.27601563532640827  0.6344226245238286  1.0000
  C   C16       1.0  0.7370576161226651  0.7239843645885352  0.3655773753684735  1.0000
  C   C17       1.0  0.36301128274511746  0.9934950313155113  0.7591803485278963  1.0000
  C   C18       1.0  0.6369887171014893  0.006504968599432145  0.2408196513644057  1.0000
  C   C19       1.0  0.17524118545566444  0.06503155644254684  0.7440156147964202  1.0000
  C   C20       1.0  0.8247588143909426  0.9349684434723965  0.25598438509588173  1.0000
  C   C21       1.0  0.41871053141650955  0.9176438181537466  0.8323128967640268  1.0000
  C   C22       1.0  0.5812894684300973  0.08235618176119681  0.16768710312827528  1.0000
  S   S1        1.0  0.6350385727491462  0.4667967230040357  0.15956732886167255  1.0000
  S   S2        1.0  0.36496142709746066  0.5332032769109079  0.8404326710306294  1.0000
  S   S3        1.0  0.26639040022803334  0.7832527946509301  0.21134912050087393  1.0000
  S   S4        1.0  0.7336096008679075  0.21674720527460653  0.7886508793873408  1.0000
  S   S5        1.0  0.5755749062101023  0.36369951225965963  0.33695638302178715  1.0000
  S   S6        1.0  0.4244250936365045  0.6363004876552839  0.6630436168705148  1.0000
  S   S7        1.0  0.26116883818097286  0.614838618112727  0.37747998619065765  1.0000
  S   S8        1.0  0.7388311616656339  0.38516138180221643  0.6225200137016443  1.0000
  S   S9        1.0  0.5226438042949572  0.1860158524350937  0.51529286974739  1.0000
  S   S10       1.0  0.47735619555164965  0.8139841474798497  0.48470713014491196  1.0000
  S   S11       1.0  0.20526331300612177  0.43280182638469367  0.5616157319540532  1.0000
  S   S12       1.0  0.7947366867601329  0.5671981734945803  0.43838426857893037  1.0000
  S   S13       1.0  0.5179582577007084  0.9973858783034204  0.6731102196396116  1.0000
  S   S14       1.0  0.48204174214589846  0.0026141216115230033  0.3268897802526904  1.0000
  S   S15       1.0  0.1255398547489971  0.27683719085157904  0.7262891588076595  1.0000
  S   S16       1.0  0.8744601450172574  0.7231628090276949  0.273710841725324  1.0000
  I   I1        1.0  0.04138509943288737  0.1332914700888436  0.4335275400172307  1.0000
  I   I2        1.0  0.9586149004137193  0.8667085298260999  0.5664724598750713  1.0000
  I   I3        1.0  0.0807099101616052  0.2955327507295442  0.2728691959330659  1.0000
  I   I4        1.0  0.9192900896850016  0.7044672491853993  0.727130803959236  1.0000
  I   I5        1.0  0.12172345428496988  0.4437555479065299  0.10101799739540884  1.0000
  I   I6        1.0  0.878276545561637  0.5562444520084137  0.8989820024968932  1.0000
  I   I7        1.0  0.04310264395385595  0.13345109121887078  0.028046849792215642  1.0000
  I   I8        1.0  0.9568973558927508  0.8665489086960727  0.9719531501000863  1.0000
