data_image0
_chemical_formula_structural       H14C24O6Cl6
_chemical_formula_sum              "H14 C24 O6 Cl6"
_cell_length_a       7.419505742782619
_cell_length_b       5.771266052447722
_cell_length_c       13.585335178171892
_cell_angle_alpha    90.0
_cell_angle_beta     92.26225916561036
_cell_angle_gamma    90.0

_space_group_name_H-M_alt    "P 1"
_space_group_IT_number       1

loop_
  _space_group_symop_operation_xyz
  'x, y, z'

loop_
  _atom_site_type_symbol
  _atom_site_label
  _atom_site_symmetry_multiplicity
  _atom_site_fract_x
  _atom_site_fract_y
  _atom_site_fract_z
  _atom_site_occupancy
  H   H1        1.0  0.25913619920927966  0.5584583765000833  0.4219669905323359  1.0000
  H   H2        1.0  0.7408638008252237  0.05845837584578346  0.5780330096494357  1.0000
  H   H3        1.0  0.42716842402631083  0.21022781465522986  0.4799725884470169  1.0000
  H   H4        1.0  0.5728315760081926  0.7102278135768076  0.5200274117347548  1.0000
  H   H5        1.0  0.4504853353571129  0.9605759203647831  0.17594545103707537  1.0000
  H   H6        1.0  0.5495146646773905  0.4605759214432053  0.8240545491446963  1.0000
  H   H7        1.0  0.2799170061745254  0.31338834729910126  0.11799609214828632  1.0000
  H   H8        1.0  0.7200829938085569  0.8133883462206791  0.882003907296824  1.0000
  H   H9        1.0  0.07538211353774193  0.8276052180914883  0.30093128554893483  1.0000
  H   H10       1.0  0.9246178864453404  0.32760521743718835  0.6990687138961754  1.0000
  H   H11       1.0  0.7021505728957035  0.620335558517804  0.28888763764907793  1.0000
  H   H12       1.0  0.2978494270873788  0.12033555786350414  0.7111123617960323  1.0000
  H   H13       1.0  0.9837864993450484  0.9231334132898665  0.1449012586749446  1.0000
  H   H14       1.0  0.01621350068945501  0.42313341263556664  0.855098741506827  1.0000
  C   C1        1.0  0.25727663720810295  0.4599610875457982  0.2654556348838632  1.0000
  C   C2        1.0  0.7427233627749794  0.9599610882000981  0.734544364561247  1.0000
  C   C3        1.0  0.3017006095294378  0.42632158830322564  0.37040904975249817  1.0000
  C   C4        1.0  0.6982993905050656  0.9263215872248035  0.6295909504292735  1.0000
  C   C5        1.0  0.3927870172988999  0.2361076196482181  0.4019999425671403  1.0000
  C   C6        1.0  0.6072129827356035  0.736107620302518  0.5980000576146314  1.0000
  C   C7        1.0  0.44993497129340304  0.05701957196383831  0.3322351741791208  1.0000
  C   C8        1.0  0.5500650287411004  0.5570195726181382  0.6677648260026506  1.0000
  C   C9        1.0  0.40644850765603285  0.09319439878740055  0.22680165827894852  1.0000
  C   C10       1.0  0.5935514923270495  0.5931943994417004  0.7731983411661618  1.0000
  C   C11       1.0  0.3141856891010055  0.2824296341889646  0.19556400100743312  1.0000
  C   C12       1.0  0.6858143108820769  0.7824296348432646  0.8044359984376772  1.0000
  C   C13       1.0  0.9339697707994983  0.10804457364004849  0.2793421005839411  1.0000
  C   C14       1.0  0.06603022923500505  0.6080445742943484  0.7206578995978304  1.0000
  C   C15       1.0  0.8536818277556703  0.3084395510141186  0.31865260582764776  1.0000
  C   C16       1.0  0.14631817227883318  0.8084395499356964  0.6813473943541236  1.0000
  C   C17       1.0  0.7659342965046527  0.46897878825947903  0.2571146798905663  1.0000
  C   C18       1.0  0.23406570218198128  0.9689787889137789  0.7428853202902089  1.0000
  C   C19       1.0  0.7573231380729623  0.43459453908492623  0.15521704625241176  1.0000
  C   C20       1.0  0.24267686196154115  0.934594539739226  0.8447829539293599  1.0000
  C   C21       1.0  0.8370645707533347  0.23732348631182892  0.11495556370814826  1.0000
  C   C22       1.0  0.16293542922974769  0.7373234852334066  0.8850444357369619  1.0000
  C   C23       1.0  0.923545058243364  0.07646786268202414  0.17665622339174297  1.0000
  C   C24       1.0  0.07645494179113943  0.576467863336324  0.8233437767900287  1.0000
  O   O1        1.0  0.17507269427851924  0.6366254451987562  0.233759294737176  1.0000
  O   O2        1.0  0.824927305755984  0.13662544627717843  0.7662407054445955  1.0000
  O   O3        1.0  0.532439716124271  0.8807720790907073  0.36174196775470974  1.0000
  O   O4        1.0  0.46756028385881127  0.38077208016912956  0.6382580316904005  1.0000
  O   O5        1.0  0.017562019175209314  0.9549103142910288  0.3399083104443474  1.0000
  O   O6        1.0  0.9824379808592941  0.45491031363672896  0.6600916897374242  1.0000
  Cl  Cl1       1.0  0.8682350914195228  0.35882663893508976  0.44363051903509626  1.0000
  Cl  Cl2       1.0  0.13176490861498055  0.8588266378566676  0.5563694811466753  1.0000
  Cl  Cl3       1.0  0.640818519341783  0.6294116363703897  0.08048953965423862  1.0000
  Cl  Cl4       1.0  0.3591814806927204  0.1294116374488118  0.919510460527533  1.0000
  Cl  Cl5       1.0  0.8293995226601917  0.18964653510225854  0.9897842573817678  1.0000
  Cl  Cl6       1.0  0.1706004773743117  0.6896465357565584  0.01021574280000373  1.0000
