data_image0
_chemical_formula_structural       H112C68N8O16S4
_chemical_formula_sum              "H112 C68 N8 O16 S4"
_cell_length_a       15.998556294345795
_cell_length_b       22.987117712249653
_cell_length_c       5.107922376648977
_cell_angle_alpha    90.0
_cell_angle_beta     90.0
_cell_angle_gamma    90.0

_space_group_name_H-M_alt    "P 1"
_space_group_IT_number       1

loop_
  _space_group_symop_operation_xyz
  'x, y, z'

loop_
  _atom_site_type_symbol
  _atom_site_label
  _atom_site_symmetry_multiplicity
  _atom_site_fract_x
  _atom_site_fract_y
  _atom_site_fract_z
  _atom_site_occupancy
  H   H1        1.0  0.9811812685590763  0.44384970215569897  0.8137808258407793  1.0000
  H   H2        1.0  0.01881873116928713  0.5561502977464353  0.8137808258407793  1.0000
  H   H3        1.0  0.518818731345997  0.9438497023242793  0.18621917481526506  1.0000
  H   H4        1.0  0.48118126838236636  0.056150298012881295  0.18621917481526506  1.0000
  H   H5        1.0  0.9063702338644646  0.43092994493699655  0.07088549184992489  1.0000
  H   H6        1.0  0.09362976648895514  0.5690700549651377  0.07088549184992489  1.0000
  H   H7        1.0  0.5936297660406087  0.9309299451055768  0.9291145088061193  1.0000
  H   H8        1.0  0.40637023368775477  0.06907005479655745  0.9291145088061193  1.0000
  H   H9        1.0  0.8748312724284052  0.4677670604292428  0.7696516665899532  1.0000
  H   H10       1.0  0.12516872792501468  0.5322329394728914  0.7696516665899532  1.0000
  H   H11       1.0  0.6251687281017246  0.9677670605978231  0.23034833406609098  1.0000
  H   H12       1.0  0.37483127225169516  0.0322329393043112  0.23034833406609098  1.0000
  H   H13       1.0  0.7535027647626218  0.4029513058552785  0.6974380045957416  1.0000
  H   H14       1.0  0.24649723496574166  0.5970486940468558  0.6974380045957416  1.0000
  H   H15       1.0  0.7464972351424516  0.9029513060238588  0.30256199410255963  1.0000
  H   H16       1.0  0.2535027645859118  0.09704869431330172  0.30256199410255963  1.0000
  H   H17       1.0  0.7746936531004537  0.3644401083627694  0.00017113220122453543  1.0000
  H   H18       1.0  0.2253063472529661  0.6355598915393649  0.00017113220122453543  1.0000
  H   H19       1.0  0.725306347429676  0.8644401085313497  0.9998288684548198  1.0000
  H   H20       1.0  0.27469365292374376  0.13555989137078453  0.9998288684548198  1.0000
  H   H21       1.0  0.7559006530029224  0.32409835731732073  0.704443831497809  1.0000
  H   H22       1.0  0.24409934672544098  0.6759016425848134  0.704443831497809  1.0000
  H   H23       1.0  0.744099346902151  0.824098357485901  0.2955561672004921  1.0000
  H   H24       1.0  0.2559006528262125  0.17590164285125953  0.2955561672004921  1.0000
  H   H25       1.0  0.5851575997084563  0.742012578241186  0.46886542774191076  1.0000
  H   H26       1.0  0.4148424000199071  0.2579874216609481  0.46886542774191076  1.0000
  H   H27       1.0  0.914842400196617  0.2420125780726059  0.5311345729141335  1.0000
  H   H28       1.0  0.0851576001568028  0.7579874218295285  0.5311345729141335  1.0000
  H   H29       1.0  0.8023779348475844  0.7421893681306743  0.0007504890868202477  1.0000
  H   H30       1.0  0.19762206488077902  0.25781063177145996  0.0007504890868202477  1.0000
  H   H31       1.0  0.6976220650574889  0.2421893683971203  0.9992495115692239  1.0000
  H   H32       1.0  0.3023779352959309  0.7578106315050139  0.9992495115692239  1.0000
  H   H33       1.0  0.5738222575273564  0.6388328264475942  0.551252987491024  1.0000
  H   H34       1.0  0.42617774282606347  0.3611671734545401  0.551252987491024  1.0000
  H   H35       1.0  0.9261777423777169  0.13883282627901392  0.44874701316502025  1.0000
  H   H36       1.0  0.07382225735064647  0.8611671736231203  0.44874701316502025  1.0000
  H   H37       1.0  0.47600500069443336  0.6729978653111438  0.5079517147443728  1.0000
  H   H38       1.0  0.52399499903393  0.32700213502601666  0.5079517147443728  1.0000
  H   H39       1.0  0.02399499885722018  0.1729978651425636  0.49204828591167143  1.0000
  H   H40       1.0  0.9760050008711433  0.8270021347595706  0.49204828591167143  1.0000
  H   H41       1.0  0.5492975727507264  0.635418029908828  0.038691177239395524  1.0000
  H   H42       1.0  0.4507024276026934  0.3645819699933062  0.038691177239395524  1.0000
  H   H43       1.0  0.9507024271543469  0.1354180297402478  0.9613088214589056  1.0000
  H   H44       1.0  0.049297572574016485  0.8645819701618865  0.9613088214589056  1.0000
  H   H45       1.0  0.45324121355642066  0.6713136946167305  0.998497323161357  1.0000
  H   H46       1.0  0.5467587867969991  0.3286863052854037  0.998497323161357  1.0000
  H   H47       1.0  0.04675878662028922  0.17131369444815028  0.0015026755369441421  1.0000
  H   H48       1.0  0.9532412131080742  0.8286863054539839  0.0015026755369441421  1.0000
  H   H49       1.0  0.8729540905472741  0.6487623662384122  0.03793415712145536  1.0000
  H   H50       1.0  0.12704590980614566  0.35123763366372207  0.03793415712145536  1.0000
  H   H51       1.0  0.6270459099828556  0.14876236606983193  0.9620658415768457  1.0000
  H   H52       1.0  0.3729540903705642  0.8512376338323022  0.9620658415768457  1.0000
  H   H53       1.0  0.7648760284904437  0.6451667601674538  0.10690983138202216  1.0000
  H   H54       1.0  0.23512397123791973  0.3548332397346805  0.10690983138202216  1.0000
  H   H55       1.0  0.7351239714146296  0.14516675999887355  0.8930901692740221  1.0000
  H   H56       1.0  0.2648760289387902  0.8548332399032607  0.8930901692740221  1.0000
  H   H57       1.0  0.6751090580477693  0.5815207907895549  0.8698412118225762  1.0000
  H   H58       1.0  0.324890941680594  0.4184792091125794  0.8698412118225762  1.0000
  H   H59       1.0  0.824890941857304  0.08152079105600084  0.13015878883346796  1.0000
  H   H60       1.0  0.17510905849611585  0.9184792088461333  0.13015878883346796  1.0000
  H   H61       1.0  0.9046147198366191  0.5358900708737195  0.2481447517281065  1.0000
  H   H62       1.0  0.09538527989174424  0.4641099290284147  0.2481447517281065  1.0000
  H   H63       1.0  0.5953852800684541  0.035890070705139304  0.7518552489279378  1.0000
  H   H64       1.0  0.40461471965990925  0.964109929196995  0.7518552489279378  1.0000
  H   H65       1.0  0.9230943960374328  0.6134548744441062  0.579069629860052  1.0000
  H   H66       1.0  0.07690560369093054  0.38654512545802805  0.579069629860052  1.0000
  H   H67       1.0  0.5769056038676403  0.11345487471055221  0.42093036883824914  1.0000
  H   H68       1.0  0.42309439648577934  0.8865451256266083  0.42093036883824914  1.0000
  H   H69       1.0  0.770031456798006  0.48150053645489393  0.22089495235051398  1.0000
  H   H70       1.0  0.22996854355541377  0.5184994634472404  0.22089495235051398  1.0000
  H   H71       1.0  0.7299685437321237  0.9815005366234741  0.7791050483055303  1.0000
  H   H72       1.0  0.27003145662129613  0.018499463278660117  0.7791050483055303  1.0000
  H   H73       1.0  0.655015503724145  0.504889573598663  0.5329347373101383  1.0000
  H   H74       1.0  0.34498449662927483  0.49511042630347124  0.5329347373101383  1.0000
  H   H75       1.0  0.8449844968059848  0.004889573865108996  0.46706526334590587  1.0000
  H   H76       1.0  0.15501550354743507  0.9951104264720515  0.46706526334590587  1.0000
  H   H77       1.0  0.4976179152373664  0.5529194973072649  0.759397932069743  1.0000
  H   H78       1.0  0.502382084490997  0.4470805025948695  0.759397932069743  1.0000
  H   H79       1.0  0.002382084314287083  0.0529194975737108  0.24060206858630126  1.0000
  H   H80       1.0  0.9976179154140763  0.9470805027634498  0.24060206858630126  1.0000
  H   H81       1.0  0.4023003027013562  0.5896744615692595  0.7121007332899734  1.0000
  H   H82       1.0  0.5976996976520635  0.41032553876790107  0.7121007332899734  1.0000
  H   H83       1.0  0.09769969747535372  0.08967446140067917  0.28789926736607085  1.0000
  H   H84       1.0  0.9023003022530097  0.9103255385014551  0.28789926736607085  1.0000
  H   H85       1.0  0.3904142602046838  0.5135708755564834  0.0667706113857881  1.0000
  H   H86       1.0  0.609585740148736  0.4864291243456509  0.0667706113857881  1.0000
  H   H87       1.0  0.10958573997202613  0.013570875387903091  0.9332293892702561  1.0000
  H   H88       1.0  0.8904142603813936  0.9864291245142313  0.9332293892702561  1.0000
  H   H89       1.0  0.37136247488154667  0.5844010044304637  0.19319806121396293  1.0000
  H   H90       1.0  0.6286375254718731  0.4155989954716705  0.19319806121396293  1.0000
  H   H91       1.0  0.12863752529516323  0.08440100469690974  0.8068019394420812  1.0000
  H   H92       1.0  0.8713624744332001  0.9155989952052246  0.8068019394420812  1.0000
  H   H93       1.0  0.4689615614036127  0.5502367464390627  0.2497181879331556  1.0000
  H   H94       1.0  0.5310384389498071  0.4497632538980978  0.2497181879331556  1.0000
  H   H95       1.0  0.031038438773097154  0.0502367462704825  0.7502818127228886  1.0000
  H   H96       1.0  0.9689615609552662  0.9497632536316518  0.7502818127228886  1.0000
  H   H97       1.0  0.5043427557805111  0.7696211839804695  0.9825848123582224  1.0000
  H   H98       1.0  0.49565724394785227  0.2303788159216647  0.9825848123582224  1.0000
  H   H99       1.0  0.9956572441245621  0.2696211838118893  0.01741518829782192  1.0000
  H   H100      1.0  0.004342756228857653  0.730378816090245  0.01741518829782192  1.0000
  H   H101      1.0  0.7210291314896237  0.7207721845514713  0.5021212874582914  1.0000
  H   H102      1.0  0.2789708688637961  0.2792278157856892  0.5021212874582914  1.0000
  H   H103      1.0  0.7789708684154496  0.220772184382891  0.49787871124000965  1.0000
  H   H104      1.0  0.2210291313129138  0.7792278155192432  0.49787871124000965  1.0000
  H   H105      1.0  0.5340508470142167  0.8126888422398797  0.7250930665923321  1.0000
  H   H106      1.0  0.46594915271414666  0.18731115766225462  0.7250930665923321  1.0000
  H   H107      1.0  0.9659491528908566  0.3126888420712994  0.27490693406371214  1.0000
  H   H108      1.0  0.03405084746256327  0.6873111578308349  0.27490693406371214  1.0000
  H   H109      1.0  0.45151608101994584  0.7653629741768179  0.7003454195689782  1.0000
  H   H110      1.0  0.548483919333474  0.2346370257253165  0.7003454195689782  1.0000
  H   H111      1.0  0.048483919156764047  0.2653629744432638  0.2996545791293229  1.0000
  H   H112      1.0  0.9515160805715993  0.7346370258938967  0.2996545791293229  1.0000
  C   C1        1.0  0.9154161575926667  0.43475848973768294  0.8581706370557161  1.0000
  C   C2        1.0  0.08458384276075301  0.5652415101644513  0.8581706370557161  1.0000
  C   C3        1.0  0.5845838423124065  0.9347584899062633  0.14182936360032813  1.0000
  C   C4        1.0  0.4154161574159569  0.06524151043089732  0.14182936360032813  1.0000
  C   C5        1.0  0.7820704155925612  0.3642956578909197  0.7862349021510957  1.0000
  C   C6        1.0  0.21792958413580224  0.6357043424462409  0.7862349021510957  1.0000
  C   C7        1.0  0.7179295843125121  0.8642956576244738  0.21376509850494865  1.0000
  C   C8        1.0  0.28207041604090766  0.13570434227766054  0.21376509850494865  1.0000
  C   C9        1.0  0.5701505205956457  0.7278284189184951  0.6684540833292782  1.0000
  C   C10       1.0  0.429849479757774  0.2721715814186653  0.6684540833292782  1.0000
  C   C11       1.0  0.9298494793094275  0.22782841874991494  0.3315459153690229  1.0000
  C   C12       1.0  0.07015052041893591  0.7721715811522194  0.3315459153690229  1.0000
  C   C13       1.0  0.6487035554369305  0.7257409218864324  0.836471570032557  1.0000
  C   C14       1.0  0.35129644491648926  0.27425907845072817  0.836471570032557  1.0000
  C   C15       1.0  0.8512964444681427  0.2257409217178521  0.16352842866574405  1.0000
  C   C16       1.0  0.14870355526022064  0.7742590781842822  0.16352842866574405  1.0000
  C   C17       1.0  0.7998518644161992  0.7121084367735638  0.8334158227347213  1.0000
  C   C18       1.0  0.2001481353121643  0.28789156312857045  0.8334158227347213  1.0000
  C   C19       1.0  0.7001481354888742  0.21210843660498355  0.16658417596357983  1.0000
  C   C20       1.0  0.2998518642394892  0.7878915632971507  0.16658417596357983  1.0000
  C   C21       1.0  0.8712997937774241  0.7281467628749495  0.6476762695384534  1.0000
  C   C22       1.0  0.1287002059509393  0.2718532370271847  0.6476762695384534  1.0000
  C   C23       1.0  0.6287002061276492  0.22814676314139556  0.3523237311175909  1.0000
  C   C24       1.0  0.3712997936007142  0.7718532367607387  0.3523237311175909  1.0000
  C   C25       1.0  0.5284172405598735  0.6680587084572379  0.6456844009762935  1.0000
  C   C26       1.0  0.4715827597935463  0.3319412918799226  0.6456844009762935  1.0000
  C   C27       1.0  0.9715827593451998  0.16805870828865768  0.3543155977220076  1.0000
  C   C28       1.0  0.028417240383163633  0.8319412916134766  0.3543155977220076  1.0000
  C   C29       1.0  0.4970874086189036  0.6413691305084087  0.9008361894917288  1.0000
  C   C30       1.0  0.5029125911094597  0.3586308693937255  0.9008361894917288  1.0000
  C   C31       1.0  0.002912591557806275  0.14136913033982845  0.09916381116431536  1.0000
  C   C32       1.0  0.9970874087956135  0.8586308695623058  0.09916381116431536  1.0000
  C   C33       1.0  0.8107107642321405  0.6503644988094032  0.9488031106650178  1.0000
  C   C34       1.0  0.1892892354962229  0.34963550152775735  0.9488031106650178  1.0000
  C   C35       1.0  0.6892892356729328  0.15036449864082296  0.051196889991026444  1.0000
  C   C36       1.0  0.31071076468048703  0.8496355012613113  0.051196889991026444  1.0000
  C   C37       1.0  0.8005138222707177  0.6027102711801493  0.7496610574008236  1.0000
  C   C38       1.0  0.19948617808270214  0.397289728721985  0.7496610574008236  1.0000
  C   C39       1.0  0.699486178259412  0.10271027101156902  0.25033894129747747  1.0000
  C   C40       1.0  0.3005138220940078  0.8972897288905652  0.25033894129747747  1.0000
  C   C41       1.0  0.7253230520619618  0.5716454822431932  0.7322708166238533  1.0000
  C   C42       1.0  0.27467694766640166  0.4283545180939673  0.7322708166238533  1.0000
  C   C43       1.0  0.7746769478431115  0.07164548207461294  0.2677291840321909  1.0000
  C   C44       1.0  0.22532305251030826  0.9283545178275213  0.2677291840321909  1.0000
  C   C45       1.0  0.8539814654918949  0.5457116954386683  0.3841809947956569  1.0000
  C   C46       1.0  0.14601853423646852  0.4542883048984922  0.3841809947956569  1.0000
  C   C47       1.0  0.6460185344131784  0.04571169527008807  0.6158190058603874  1.0000
  C   C48       1.0  0.3539814659402414  0.9542883046320463  0.6158190058603874  1.0000
  C   C49       1.0  0.8646387877441695  0.5890962938247702  0.5722600862853473  1.0000
  C   C50       1.0  0.13536121198419387  0.4109037060773641  0.5722600862853473  1.0000
  C   C51       1.0  0.6353612121609038  0.08909629409121621  0.4277399124129538  1.0000
  C   C52       1.0  0.36463878756745965  0.9109037062459444  0.4277399124129538  1.0000
  C   C53       1.0  0.7785786555254517  0.5152231066223973  0.3685157234583711  1.0000
  C   C54       1.0  0.22142134420291174  0.48477689327973694  0.3685157234583711  1.0000
  C   C55       1.0  0.7214213443796216  0.01522310688884332  0.63148427523993  1.0000
  C   C56       1.0  0.27857865534874177  0.984776893013291  0.63148427523993  1.0000
  C   C57       1.0  0.7141319416451252  0.5284006460508651  0.5435354367740803  1.0000
  C   C58       1.0  0.2858680587082946  0.4715993542862954  0.5435354367740803  1.0000
  C   C59       1.0  0.7858680582599481  0.02840064588228484  0.45646456192422075  1.0000
  C   C60       1.0  0.21413194146841527  0.9715993540198494  0.45646456192422075  1.0000
  C   C61       1.0  0.4534663819987303  0.5832794814834497  0.8536458365016476  1.0000
  C   C62       1.0  0.5465336183546895  0.4167205184186845  0.8536458365016476  1.0000
  C   C63       1.0  0.04653361817797964  0.08327948131486947  0.14635416219665345  1.0000
  C   C64       1.0  0.9534663815503838  0.9167205185872648  0.14635416219665345  1.0000
  C   C65       1.0  0.41912876678565303  0.5561980049019702  0.10402138498208308  1.0000
  C   C66       1.0  0.5808712329427103  0.443801995000164  0.10402138498208308  1.0000
  C   C67       1.0  0.08087123276600043  0.05619800516841631  0.895978613716218  1.0000
  C   C68       1.0  0.919128766962363  0.943801994733718  0.895978613716218  1.0000
  N   N1        1.0  0.5120839767832944  0.7716928108192979  0.7796610219070443  1.0000
  N   N2        1.0  0.48791602357012537  0.22830718908283645  0.7796610219070443  1.0000
  N   N3        1.0  0.9879160231217788  0.27169281108574383  0.22033897679125675  1.0000
  N   N4        1.0  0.012083976606584513  0.7283071888163906  0.22033897679125675  1.0000
  N   N5        1.0  0.7201476969563725  0.7189216041293189  0.702150192492338  1.0000
  N   N6        1.0  0.2798523027719909  0.2810783957728153  0.702150192492338  1.0000
  N   N7        1.0  0.7798523029487008  0.21892160396073868  0.2978498062059631  1.0000
  N   N8        1.0  0.22014769740471898  0.7810783959413956  0.2978498062059631  1.0000
  O   O1        1.0  0.9023480515615063  0.3704688620210043  0.4230339971253825  1.0000
  O   O2        1.0  0.09765194879191345  0.6295311378811299  0.4230339971253825  1.0000
  O   O3        1.0  0.597651948343567  0.8704688621895845  0.5769660035306619  1.0000
  O   O4        1.0  0.40234805138479646  0.12953113814757597  0.5769660035306619  1.0000
  O   O5        1.0  0.645630552529951  0.7283393629240476  0.08057275730763967  1.0000
  O   O6        1.0  0.3543694478234688  0.27166063697808673  0.08057275730763967  1.0000
  O   O7        1.0  0.8543694473751223  0.22833936275546726  0.9194272433484045  1.0000
  O   O8        1.0  0.1456305523532411  0.771660637146667  0.9194272433484045  1.0000
  O   O9        1.0  0.8530019202309554  0.7447804498289362  0.4167690898616598  1.0000
  O   O10       1.0  0.1469980801224644  0.25521955007319813  0.4167690898616598  1.0000
  O   O11       1.0  0.6469980802991743  0.24478044966035584  0.5832309107943845  1.0000
  O   O12       1.0  0.35300192005424547  0.7552195502417783  0.5832309107943845  1.0000
  O   O13       1.0  0.9449831854729999  0.7230487518295043  0.7345431710458903  1.0000
  O   O14       1.0  0.055016814255363554  0.27695124850765623  0.7345431710458903  1.0000
  O   O15       1.0  0.5550168144320734  0.22304875166092403  0.2654568276524108  1.0000
  O   O16       1.0  0.44498318529628994  0.7769512482412102  0.2654568276524108  1.0000
  S   S1        1.0  0.8927073810433478  0.3643932538587171  0.7190031639457678  1.0000
  S   S2        1.0  0.10729261931007204  0.6356067464784434  0.7190031639457678  1.0000
  S   S3        1.0  0.6072926188617255  0.8643932535922711  0.2809968367102765  1.0000
  S   S4        1.0  0.39270738086663787  0.13560674630986314  0.2809968367102765  1.0000
