data_image0
_chemical_formula_structural       H100B4C132N4O8F20
_chemical_formula_sum              "H100 B4 C132 N4 O8 F20"
_cell_length_a       6.089793389530488
_cell_length_b       14.6552266590724
_cell_length_c       29.482251519085466
_cell_angle_alpha    90.0
_cell_angle_beta     90.0
_cell_angle_gamma    90.0

_space_group_name_H-M_alt    "P 1"
_space_group_IT_number       1

loop_
  _space_group_symop_operation_xyz
  'x, y, z'

loop_
  _atom_site_type_symbol
  _atom_site_label
  _atom_site_symmetry_multiplicity
  _atom_site_fract_x
  _atom_site_fract_y
  _atom_site_fract_z
  _atom_site_occupancy
  H   H1        1.0  0.849037420364541  0.2624233339727428  0.8742243710021612  1.0000
  H   H2        1.0  0.6509625805721521  0.7375766660905521  0.3742243709866512  1.0000
  H   H3        1.0  0.15096257971255717  0.7624233340043902  0.6257756290443687  1.0000
  H   H4        1.0  0.349037419504946  0.23757666605890465  0.12577562902885872  1.0000
  H   H5        1.0  0.8414795153493843  0.25249623947025435  0.6421281114756343  1.0000
  H   H6        1.0  0.6585204855873087  0.7475037605930405  0.14212811146012436  1.0000
  H   H7        1.0  0.15852048472771377  0.7524962395019017  0.8578718885708955  1.0000
  H   H8        1.0  0.34147951448978936  0.2475037605613931  0.35787188855538554  1.0000
  H   H9        1.0  0.897445225218283  0.1329696684557005  0.7008442274710281  1.0000
  H   H10       1.0  0.6025547740763182  0.8670303316075944  0.20084422745551825  1.0000
  H   H11       1.0  0.10255477485881513  0.6329696684873479  0.7991557722363145  1.0000
  H   H12       1.0  0.3974452260007798  0.36703033157594694  0.29915577255999165  1.0000
  H   H13       1.0  0.4966639467933065  0.956996094039784  0.7081691259734442  1.0000
  H   H14       1.0  0.003336054066288498  0.043003905341160414  0.20816912595793424  1.0000
  H   H15       1.0  0.5033360532837916  0.456996094690487  0.7918308740730856  1.0000
  H   H16       1.0  0.9966639460108095  0.5430039053728078  0.29183087405757574  1.0000
  H   H17       1.0  0.2817039972077383  0.17570297136318613  0.7563969700741415  1.0000
  H   H18       1.0  0.21829600365185664  0.8242970287001087  0.25639697005863155  1.0000
  H   H19       1.0  0.7182960028693598  0.6757029713948335  0.7436030299723884  1.0000
  H   H20       1.0  0.7817039964252415  0.32429702866846133  0.2436030299568784  1.0000
  H   H21       1.0  0.07576796296459803  0.007892041023357374  0.7884443382810222  1.0000
  H   H22       1.0  0.4242320378949969  0.9921079590399375  0.2884443382655123  1.0000
  H   H23       1.0  0.9242320371125001  0.5078920410550049  0.7115556617655077  1.0000
  H   H24       1.0  0.5757679621821012  0.4921079590082901  0.21155566174999768  1.0000
  H   H25       1.0  0.1861014352224808  0.21760870399269922  0.921895190141947  1.0000
  H   H26       1.0  0.31389856563711416  0.7823912960705957  0.4218951904656242  1.0000
  H   H27       1.0  0.8138985648546173  0.7176087040243467  0.5781048095653957  1.0000
  H   H28       1.0  0.686101434439984  0.2823912960389482  0.07810480954988576  1.0000
  H   H29       1.0  0.5439461124731834  0.29638110423294695  0.9287339303877346  1.0000
  H   H30       1.0  0.9560538884635097  0.703618895830348  0.42873393037222457  1.0000
  H   H31       1.0  0.4560538876039147  0.7963811035822439  0.5712660696587953  1.0000
  H   H32       1.0  0.04394611161358846  0.20361889579870046  0.07126606964328534  1.0000
  H   H33       1.0  0.7259272814739667  0.3491438746757579  0.5906310357174563  1.0000
  H   H34       1.0  0.7740727178206347  0.650856125387537  0.09063103570194646  1.0000
  H   H35       1.0  0.2740727186031315  0.8491438747074054  0.9093689643290733  1.0000
  H   H36       1.0  0.22592728225646347  0.15085612535588955  0.40936896431356345  1.0000
  H   H37       1.0  0.11894662161204238  0.10415696703367235  0.8600077342663722  1.0000
  H   H38       1.0  0.3810533776054607  0.8958430330296225  0.3600077342508623  1.0000
  H   H39       1.0  0.8810533784650557  0.6041569670653198  0.6399922657801576  1.0000
  H   H40       1.0  0.6189466224716373  0.39584303299797513  0.13999226576464766  1.0000
  H   H41       1.0  0.20371087665022486  0.30294309554411286  0.7023992291292402  1.0000
  H   H42       1.0  0.2962891242093701  0.697056904519182  0.20239922911373023  1.0000
  H   H43       1.0  0.7962891234268732  0.8029430955757603  0.7976007709172896  1.0000
  H   H44       1.0  0.703710875867728  0.19705690448753457  0.2976007709017797  1.0000
  H   H45       1.0  0.3121569285532955  0.4002608486692134  0.6453258625001438  1.0000
  H   H46       1.0  0.1878430706642076  0.5997391513940815  0.1453258624846338  1.0000
  H   H47       1.0  0.6878430715238025  0.9002608487008609  0.8546741375463861  1.0000
  H   H48       1.0  0.8121569294128904  0.099739151362434  0.3546741375308762  1.0000
  H   H49       1.0  0.0452648591451232  0.7728734889943297  0.7013320005975375  1.0000
  H   H50       1.0  0.45473514171447177  0.22712651106896511  0.20133200058202766  1.0000
  H   H51       1.0  0.9547351409319749  0.2728734889626823  0.7986679994489922  1.0000
  H   H52       1.0  0.5452648583626264  0.7271265111006127  0.29866799943348227  1.0000
  H   H53       1.0  0.6713147242447235  0.8189753102569675  0.6759653263625028  1.0000
  H   H54       1.0  0.8286852750498777  0.18102468980632733  0.17596532634699286  1.0000
  H   H55       1.0  0.32868527419028276  0.3189753102253201  0.8240346736840269  1.0000
  H   H56       1.0  0.17131472502722037  0.6810246891556244  0.32403467366851707  1.0000
  H   H57       1.0  0.24984363551902117  0.8705595816972189  0.7560753945664546  1.0000
  H   H58       1.0  0.2501563653405738  0.1294404183660759  0.25607539455094475  1.0000
  H   H59       1.0  0.750156364558077  0.37055958166557157  0.743924605140888  1.0000
  H   H60       1.0  0.7498436347365243  0.6294404183977232  0.24392460512537809  1.0000
  H   H61       1.0  0.12738542022356014  0.37535932114667026  0.4653892346423349  1.0000
  H   H62       1.0  0.3726145806360348  0.6246406789166246  0.9653892343186578  1.0000
  H   H63       1.0  0.872614579853538  0.8753593211783176  0.03461076537317503  1.0000
  H   H64       1.0  0.6273854194410633  0.1246406788849772  0.534610765388685  1.0000
  H   H65       1.0  0.8516781519906166  0.328034763421686  0.39237487823856815  1.0000
  H   H66       1.0  0.6483218473039846  0.6719652359592585  0.892374877914891  1.0000
  H   H67       1.0  0.14832184808648144  0.8280347634533334  0.10762512177694178  1.0000
  H   H68       1.0  0.3516781527731135  0.17196523660996146  0.6076251217924518  1.0000
  H   H69       1.0  0.34588852285551824  0.2370637698632428  0.4838082478458708  1.0000
  H   H70       1.0  0.15411147800407676  0.7629362302000521  0.9838082475221936  1.0000
  H   H71       1.0  0.6541114772215799  0.7370637698948903  0.016191752169639178  1.0000
  H   H72       1.0  0.8458885220730212  0.2629362301684046  0.5161917521851491  1.0000
  H   H73       1.0  0.7083617446556071  0.21203914018459047  0.446121269994782  1.0000
  H   H74       1.0  0.7916382546389942  0.7879608598787045  0.946121270010292  1.0000
  H   H75       1.0  0.291638255421491  0.7120391402162379  0.05387873002072788  1.0000
  H   H76       1.0  0.20836174543810396  0.28796085984705694  0.5538787300362379  1.0000
  H   H77       1.0  0.5388490347868757  0.49618075920364224  0.3356819788201506  1.0000
  H   H78       1.0  0.9611509661498174  0.5038192408596527  0.8356819788356605  1.0000
  H   H79       1.0  0.46115096529022237  0.9961807592352897  0.16431802119535932  1.0000
  H   H80       1.0  0.03884903392728076  0.003819240828005231  0.6643180212108692  1.0000
  H   H81       1.0  0.8111712719995668  0.4603088506873344  0.3485968367560689  1.0000
  H   H82       1.0  0.6888287289371262  0.5396911493759604  0.8485968367715788  1.0000
  H   H83       1.0  0.18882872807753126  0.9603088507189819  0.15140316325944103  1.0000
  H   H84       1.0  0.3111712711399719  0.03969114934431301  0.651403163274951  1.0000
  H   H85       1.0  0.6855939985054065  0.5505129758607675  0.37926339217212035  1.0000
  H   H86       1.0  0.8144060007891948  0.4494870242025274  0.8792633921876303  1.0000
  H   H87       1.0  0.31440600157169163  0.05051297582912006  0.12073660784338963  1.0000
  H   H88       1.0  0.18559399928790332  0.9494870242341749  0.6207366078588995  1.0000
  H   H89       1.0  0.31858093795684217  0.5748202662416689  0.4090128015560074  1.0000
  H   H90       1.0  0.1814190629027528  0.4251797331392756  0.9090128015715173  1.0000
  H   H91       1.0  0.6814190621202559  0.07482026689237185  0.09098719845950257  1.0000
  H   H92       1.0  0.8185809371743453  0.925179733170923  0.5909871984750125  1.0000
  H   H93       1.0  0.07953790367218747  0.5152418393560307  0.4273471255017237  1.0000
  H   H94       1.0  0.42046209554531566  0.48475816070726413  0.9273471255172336  1.0000
  H   H95       1.0  0.9204620964049107  0.015241839324383288  0.07265287451378624  1.0000
  H   H96       1.0  0.5795379045317824  0.9847581607389116  0.5726528745292963  1.0000
  H   H97       1.0  0.17251446031094292  0.5077860345062055  0.3703146475408221  1.0000
  H   H98       1.0  0.32748554054865203  0.4922139655570894  0.870314647556332  1.0000
  H   H99       1.0  0.8274855397661551  0.007786034474558058  0.12968535247468788  1.0000
  H   H100      1.0  0.672514459528446  0.9922139655887368  0.6296853524901979  1.0000
  B   B1        1.0  0.6549421507233603  0.07988317664641972  0.7724329386871203  1.0000
  B   B2        1.0  0.845057848571241  0.9201168227345248  0.2724329386716103  1.0000
  B   B3        1.0  0.34505784935373784  0.5798831766780672  0.7275670613594096  1.0000
  B   B4        1.0  0.1549421515058571  0.4201168233852277  0.22756706134389965  1.0000
  C   C1        1.0  0.6518255720833314  0.16452271029922175  0.8373179024003441  1.0000
  C   C2        1.0  0.84817442721127  0.8354772897640732  0.3373179023848342  1.0000
  C   C3        1.0  0.3481744279937668  0.6645227103308692  0.6626820976461857  1.0000
  C   C4        1.0  0.15182557286582818  0.3354772897324257  0.16268209763067573  1.0000
  C   C5        1.0  0.7713263455005567  0.9924395056009723  0.7513642550556177  1.0000
  C   C6        1.0  0.7286736537940445  0.00756049446232264  0.2513642550401077  1.0000
  C   C7        1.0  0.22867365457654137  0.4924395055693248  0.7486357449909122  1.0000
  C   C8        1.0  0.2713263462830536  0.5075604944939701  0.24863574497540228  1.0000
  C   C9        1.0  0.691012743919123  0.2282089951798594  0.871299887777256  1.0000
  C   C10       1.0  0.80898725701757  0.7717910048834355  0.37129988776174605  1.0000
  C   C11       1.0  0.308987256157975  0.7282089952115068  0.6287001122692738  1.0000
  C   C12       1.0  0.19101274305952812  0.27179100485178803  0.12870011225376388  1.0000
  C   C13       1.0  0.44723353089159257  0.12037542039023369  0.8334343821771386  1.0000
  C   C14       1.0  0.05276646832591055  0.8796245796730612  0.3334343821616287  1.0000
  C   C15       1.0  0.5527664691855055  0.6203754204218811  0.666565617530204  1.0000
  C   C16       1.0  0.9472335301090957  0.3796245796414138  0.16656561751469415  1.0000
  C   C17       1.0  0.712868168477338  0.23937231280065663  0.666973093872105  1.0000
  C   C18       1.0  0.7871318308172631  0.7606276872626382  0.1669730938565951  1.0000
  C   C19       1.0  0.28713183159976  0.739372312832304  0.8330269061744249  1.0000
  C   C20       1.0  0.21286816925983493  0.26062768723099083  0.33302690615891484  1.0000
  C   C21       1.0  0.7459256266081994  0.17230045899268445  0.6991712606025355  1.0000
  C   C22       1.0  0.7540743726864019  0.8276995410706104  0.19917126058702553  1.0000
  C   C23       1.0  0.2540743734688987  0.672300459024332  0.8008287394439944  1.0000
  C   C24       1.0  0.24592562739069623  0.327699541038963  0.3008287394284844  1.0000
  C   C25       1.0  0.521030341596635  0.45913609366352137  0.5673550277926286  1.0000
  C   C26       1.0  0.9789696593400582  0.5408639063997736  0.06735502777711865  1.0000
  C   C27       1.0  0.47896965848046313  0.9591360930128183  0.9326449719147142  1.0000
  C   C28       1.0  0.021030340737040014  0.0408639063681261  0.43264497223839127  1.0000
  C   C29       1.0  0.6707063325041482  0.48198732809275374  0.5327159694649802  1.0000
  C   C30       1.0  0.8292936684325447  0.5180126719705411  0.03271596944947032  1.0000
  C   C31       1.0  0.3292936675729498  0.9819873281244011  0.9672840305815497  1.0000
  C   C32       1.0  0.17070633164455332  0.018012671938893682  0.4672840305660396  1.0000
  C   C33       1.0  0.515354924092419  0.289776704843458  0.6673297681238388  1.0000
  C   C34       1.0  0.984645076844274  0.710223295219837  0.16732976810832897  1.0000
  C   C35       1.0  0.4846450759846791  0.7897767048751054  0.8326702319226909  1.0000
  C   C36       1.0  0.015354923232824046  0.21022329518818944  0.332670231907181  1.0000
  C   C37       1.0  0.6622097256916815  0.9383190488894415  0.719016394534089  1.0000
  C   C38       1.0  0.8377902736029197  0.06168095117385345  0.2190163945185791  1.0000
  C   C39       1.0  0.3377902727433248  0.438319048857794  0.7809836055124407  1.0000
  C   C40       1.0  0.16220972647417833  0.5616809512055009  0.2809836054969308  1.0000
  C   C41       1.0  0.4000401990957896  0.19653496646651702  0.7307867605041154  1.0000
  C   C42       1.0  0.09995980176380538  0.8034650335967778  0.2307867604886054  1.0000
  C   C43       1.0  0.5999598009813084  0.6965349664981644  0.7692132395424145  1.0000
  C   C44       1.0  0.9000401983132927  0.30346503356513044  0.2692132395269045  1.0000
  C   C45       1.0  0.9844176963879222  0.9664954756077804  0.7642315599747965  1.0000
  C   C46       1.0  0.5155823029066791  0.03350452445551455  0.26423155995928665  1.0000
  C   C47       1.0  0.01558230368917591  0.46649547557613286  0.7357684400717333  1.0000
  C   C48       1.0  0.48441769717041905  0.533504524487162  0.2357684400562233  1.0000
  C   C49       1.0  0.3166048610638742  0.20216624614030565  0.8979622005077181  1.0000
  C   C50       1.0  0.18339513815362893  0.7978337539229892  0.3979622004922082  1.0000
  C   C51       1.0  0.6833951390132238  0.7021662461719531  0.6020377995388116  1.0000
  C   C52       1.0  0.8166048619234691  0.29783375389134176  0.1020377995233017  1.0000
  C   C53       1.0  0.5186772190712245  0.2466462992411193  0.9017550163287084  1.0000
  C   C54       1.0  0.9813227818654686  0.7533537008221756  0.40175501631319843  1.0000
  C   C55       1.0  0.4813227810058736  0.7466462992727668  0.5982449837178214  1.0000
  C   C56       1.0  0.018677218211629536  0.2533537007905281  0.09824498370231151  1.0000
  C   C57       1.0  0.5765507440755223  0.38682746721563305  0.598971280689616  1.0000
  C   C58       1.0  0.9234492568611707  0.6131725328476618  0.09897128067410615  1.0000
  C   C59       1.0  0.42344925600157585  0.8868274672472805  0.9010287193569138  1.0000
  C   C60       1.0  0.07655074321592731  0.11317253281601439  0.4010287193414038  1.0000
  C   C61       1.0  0.2774028102339682  0.13771807949149437  0.8635691149137094  1.0000
  C   C62       1.0  0.22259718898353495  0.8622819205718005  0.3635691148981995  1.0000
  C   C63       1.0  0.7225971898431299  0.6377180795231417  0.6364308851328203  1.0000
  C   C64       1.0  0.7774028110935631  0.36228192054015307  0.13643088511731044  1.0000
  C   C65       1.0  0.32600231124640205  0.5110734138911006  0.5681432443908404  1.0000
  C   C66       1.0  0.17399768797110107  0.4889265861721943  0.06814324437533051  1.0000
  C   C67       1.0  0.6739976888306961  0.011073413859453178  0.9318567556556893  1.0000
  C   C68       1.0  0.8260023121059971  0.9889265862038417  0.4318567556401794  1.0000
  C   C69       1.0  0.35855262573503244  0.26601280285123574  0.7002398604677664  1.0000
  C   C70       1.0  0.14144737512456249  0.7339871972120592  0.20023986045225647  1.0000
  C   C71       1.0  0.6414473743420657  0.7660128028828831  0.7997601395787634  1.0000
  C   C72       1.0  0.8585526249525356  0.23398719718041175  0.2997601395632535  1.0000
  C   C73       1.0  0.46095886353484733  0.3633912728810079  0.6364710876254703  1.0000
  C   C74       1.0  0.03904113732474761  0.6366087264999366  0.13647108760996038  1.0000
  C   C75       1.0  0.5390411365422507  0.8633912729126553  0.8635289120818723  1.0000
  C   C76       1.0  0.9609588627523505  0.13660872715063954  0.3635289120663624  1.0000
  C   C77       1.0  0.9707716981274775  0.8350187925905859  0.7144144620828932  1.0000
  C   C78       1.0  0.5292283011671236  0.16498120747270903  0.2144144624065703  1.0000
  C   C79       1.0  0.0292283019496205  0.3350187925589384  0.7855855376244496  1.0000
  C   C80       1.0  0.47077169890997445  0.6649812075043565  0.2855855376089396  1.0000
  C   C81       1.0  0.28601356541823275  0.581469159654701  0.5377200560729686  1.0000
  C   C82       1.0  0.21398643544136214  0.41853084040859384  0.03772005605745868  1.0000
  C   C83       1.0  0.7139864346588654  0.08146915962305361  0.9622799436343741  1.0000
  C   C84       1.0  0.7860135646357359  0.9185308404402412  0.46227994361886415  1.0000
  C   C85       1.0  0.6348979009118882  0.5525358698554945  0.5021924706264521  1.0000
  C   C86       1.0  0.8651020983827129  0.4474641302078004  0.002192470610942169  1.0000
  C   C87       1.0  0.36510209916520986  0.05253586982384702  0.9978075294200778  1.0000
  C   C88       1.0  0.1348979016943851  0.9474641302394479  0.4978075294045678  1.0000
  C   C89       1.0  0.7595220665370725  0.8603233326449307  0.7007640534721574  1.0000
  C   C90       1.0  0.7404779343996206  0.13967666673601378  0.20076405345664744  1.0000
  C   C91       1.0  0.24047793354002558  0.36032333329563365  0.7992359465743724  1.0000
  C   C92       1.0  0.25952206567747754  0.6396766667676612  0.2992359465588625  1.0000
  C   C93       1.0  0.08353707875781015  0.8887159150102407  0.7458646082632063  1.0000
  C   C94       1.0  0.41646292045969296  0.11128408505305419  0.2458646082476964  1.0000
  C   C95       1.0  0.9164629213192879  0.38871591497859326  0.7541353917833236  1.0000
  C   C96       1.0  0.5835370796174051  0.6112840850847017  0.2541353917678135  1.0000
  C   C97       1.0  0.442712439905594  0.6034844888956357  0.5051238444377112  1.0000
  C   C98       1.0  0.05728755931190913  0.39651551116765926  0.005123844422201237  1.0000
  C   C99       1.0  0.5572875601715042  0.10348448886398814  0.9948761556088186  1.0000
  C   C100      1.0  0.9427124407651889  0.8965155111993067  0.4948761555933087  1.0000
  C   C101      1.0  0.3626792796939671  0.42909961246536144  0.4178643185383879  1.0000
  C   C102      1.0  0.13732071952353603  0.5709003869155831  0.9178643185538979  1.0000
  C   C103      1.0  0.637320720383131  0.9290996124970089  0.082135681477122  1.0000
  C   C104      1.0  0.862679280553562  0.07090038756628601  0.582135681492632  1.0000
  C   C105      1.0  0.5693823481698336  0.4156882545537916  0.39707323989219995  1.0000
  C   C106      1.0  0.9306176511247676  0.5843117455095034  0.8970732395685228  1.0000
  C   C107      1.0  0.4306176519072644  0.915688254585439  0.10292676012330995  1.0000
  C   C108      1.0  0.06938234895233052  0.08431174547785586  0.60292676013882  1.0000
  C   C109      1.0  0.2864710226457291  0.3644851665731996  0.4491674477923584  1.0000
  C   C110      1.0  0.21352897657177403  0.6355148334900953  0.9491674478078683  1.0000
  C   C111      1.0  0.713528977431369  0.8644851666048471  0.050832552223151514  1.0000
  C   C112      1.0  0.786471023505324  0.13551483345844775  0.5508325522386615  1.0000
  C   C113      1.0  0.6913766249013268  0.3378045529534886  0.4081142952128656  1.0000
  C   C114      1.0  0.8086233760353664  0.6621954471098063  0.9081142952283755  1.0000
  C   C115      1.0  0.3086233751757713  0.837804552985136  0.09188570480264435  1.0000
  C   C116      1.0  0.1913766240417318  0.16219544707815886  0.5918857048181543  1.0000
  C   C117      1.0  0.40894696103836214  0.28664746426145654  0.45956869241241355  1.0000
  C   C118      1.0  0.09105303982123283  0.7133525358018384  0.9595686924279235  1.0000
  C   C119      1.0  0.591053039038736  0.786647464293104  0.040431307603096385  1.0000
  C   C120      1.0  0.9089469602558653  0.21335253577019095  0.5404313076186064  1.0000
  C   C121      1.0  0.611914245958893  0.2728751811917128  0.4386801853185326  1.0000
  C   C122      1.0  0.8880857533357082  0.7271248188715822  0.9386801853340426  1.0000
  C   C123      1.0  0.3880857541182051  0.7728751812233602  0.06131981469697736  1.0000
  C   C124      1.0  0.11191424509929804  0.22712481883993468  0.5613198147124873  1.0000
  C   C125      1.0  0.655823863723547  0.48362250444024235  0.3634052322314747  1.0000
  C   C126      1.0  0.8441761372131461  0.5163774956230525  0.8634052322469846  1.0000
  C   C127      1.0  0.3441761363535512  0.9836225044718898  0.13659476778403526  1.0000
  C   C128      1.0  0.15582386286395195  0.016377495591405052  0.6365947677995452  1.0000
  C   C129      1.0  0.2260076232415683  0.5107299309742477  0.405923176940973  1.0000
  C   C130      1.0  0.27399237597593484  0.48927006908904724  0.905923176956483  1.0000
  C   C131      1.0  0.7739923768355298  0.01072993094260018  0.09407682307453691  1.0000
  C   C132      1.0  0.7260076241011634  0.9892700691206946  0.5940768230900468  1.0000
  N   N1        1.0  0.5926238722982757  0.15110262034938482  0.730779818022132  1.0000
  N   N2        1.0  0.9073761286384173  0.84889737971391  0.23077981800662206  1.0000
  N   N3        1.0  0.4073761277788224  0.6511026203810322  0.7692201820243978  1.0000
  N   N4        1.0  0.09262387143868077  0.34889737968226264  0.26922018200888786  1.0000
  O   O1        1.0  0.44684265227753445  0.06213884378487258  0.7971986147253746  1.0000
  O   O2        1.0  0.05315734693996868  0.9378611562784224  0.2971986147098646  1.0000
  O   O3        1.0  0.5531573477995636  0.56213884381652  0.7028013849819682  1.0000
  O   O4        1.0  0.9468426531371295  0.43786115624677485  0.20280138496645825  1.0000
  O   O5        1.0  0.7921789577120509  0.13495768547364023  0.8042534134358921  1.0000
  O   O6        1.0  0.7078210432246422  0.8650423145896546  0.30425341342038215  1.0000
  O   O7        1.0  0.2078210423650472  0.6349576848229372  0.6957465866106377  1.0000
  O   O8        1.0  0.29217895685245593  0.3650423145580072  0.19574658659512778  1.0000
  F   F1        1.0  0.16723725336082707  0.49401833614890345  0.5990780089697803  1.0000
  F   F2        1.0  0.3327627458566761  0.5059816639143914  0.09907800895427034  1.0000
  F   F3        1.0  0.832762746716271  0.9940183361805509  0.9009219910767495  1.0000
  F   F4        1.0  0.6672372542204219  0.005981663882743973  0.4009219910612396  1.0000
  F   F5        1.0  0.8614615610800659  0.4349742414972299  0.5288841087969826  1.0000
  F   F6        1.0  0.6385384398566273  0.565025758566065  0.02888410878147259  1.0000
  F   F7        1.0  0.13853843899703228  0.9349742415288773  0.9711158912495473  1.0000
  F   F8        1.0  0.3614615602204709  0.06502575853441751  0.47111589123403735  1.0000
  F   F9        1.0  0.7854640024772309  0.573078278854241  0.47022438062525684  1.0000
  F   F10       1.0  0.7145359968173703  0.4269217212090538  0.9702243806407668  1.0000
  F   F11       1.0  0.2145359975998672  0.07307827882259361  0.0297756193902531  1.0000
  F   F12       1.0  0.28546400161763597  0.9269217212407012  0.529775619405763  1.0000
  F   F13       1.0  0.09821149450295415  0.6296488123087182  0.5398270020082133  1.0000
  F   F14       1.0  0.4017885063566408  0.3703511877545767  0.03982700199270341  1.0000
  F   F15       1.0  0.9017885055741439  0.12964881227707073  0.9601729980383165  1.0000
  F   F16       1.0  0.5982114937204572  0.8703511877862242  0.46017299802280653  1.0000
  F   F17       1.0  0.40980063860465493  0.6745194557520193  0.4771101393288817  1.0000
  F   F18       1.0  0.09019936225494007  0.3254805443112755  0.9771101393443916  1.0000
  F   F19       1.0  0.5901993614724432  0.17451945572037195  0.022889860686628235  1.0000
  F   F20       1.0  0.909800637822158  0.825480544342923  0.5228898607021382  1.0000
