data_image0
_chemical_formula_structural       H72C16N12O4Cl12
_chemical_formula_sum              "H72 C16 N12 O4 Cl12"
_cell_length_a       6.497264555773596
_cell_length_b       12.868064675218562
_cell_length_c       12.628707172761485
_cell_angle_alpha    90.0
_cell_angle_beta     90.0
_cell_angle_gamma    90.0

_space_group_name_H-M_alt    "P 1"
_space_group_IT_number       1

loop_
  _space_group_symop_operation_xyz
  'x, y, z'

loop_
  _atom_site_type_symbol
  _atom_site_label
  _atom_site_symmetry_multiplicity
  _atom_site_fract_x
  _atom_site_fract_y
  _atom_site_fract_z
  _atom_site_occupancy
  H   H1        1.0  0.5440723260774022  0.7485458997225934  0.317671027217488  1.0000
  H   H2        1.0  0.5440723260774022  0.7485458997225934  0.18232897306910167  1.0000
  H   H3        1.0  0.5440723260774022  0.75145410005765  0.817671026712231  1.0000
  H   H4        1.0  0.4559276730339782  0.2485458995368064  0.317671027217488  1.0000
  H   H5        1.0  0.4559276730339782  0.2514541006489806  0.6823289725638446  1.0000
  H   H6        1.0  0.4559276730339782  0.2514541006489806  0.817671026712231  1.0000
  H   H7        1.0  0.4559276730339782  0.2485458995368064  0.18232897306910167  1.0000
  H   H8        1.0  0.5440723260774022  0.75145410005765  0.6823289725638446  1.0000
  H   H9        1.0  0.3185845523498995  0.7413826290733935  0.24999999974737147  1.0000
  H   H10       1.0  0.3185845523498995  0.75861737070685  0.7500000000339612  1.0000
  H   H11       1.0  0.6814154467614809  0.24138262888760645  0.24999999974737147  1.0000
  H   H12       1.0  0.6814154467614809  0.25861737052106293  0.7500000000339612  1.0000
  H   H13       1.0  0.4840805500531934  0.6390912338074892  0.24999999974737147  1.0000
  H   H14       1.0  0.4840805500531934  0.8609087667498717  0.7500000000339612  1.0000
  H   H15       1.0  0.5159194505972962  0.1390912336217023  0.24999999974737147  1.0000
  H   H16       1.0  0.5159194505972962  0.36090876656408466  0.7500000000339612  1.0000
  H   H17       1.0  0.03298156911427867  0.09240031970695739  0.24999999974737147  1.0000
  H   H18       1.0  0.03298156911427867  0.4075996804788296  0.7500000000339612  1.0000
  H   H19       1.0  0.9670184299971017  0.5924003198927444  0.24999999974737147  1.0000
  H   H20       1.0  0.9670184299971017  0.9075996806646166  0.7500000000339612  1.0000
  H   H21       1.0  0.19686323975578168  0.9991874306290441  0.24999999974737147  1.0000
  H   H22       1.0  0.19686323975578168  0.5008125691511992  0.7500000000339612  1.0000
  H   H23       1.0  0.803136760894708  0.49918743122037473  0.24999999974737147  1.0000
  H   H24       1.0  0.803136760894708  0.0008125689654122293  0.7500000000339612  1.0000
  H   H25       1.0  0.07575140826959892  0.4550067860068906  0.14388487793265253  1.0000
  H   H26       1.0  0.07575140826959892  0.4550067860068906  0.3561151215620904  1.0000
  H   H27       1.0  0.07575140826959892  0.044993213401778795  0.6438848782192421  1.0000
  H   H28       1.0  0.9242485923808907  0.9550067861926775  0.14388487793265253  1.0000
  H   H29       1.0  0.9242485923808907  0.5449932135875658  0.8561151218486801  1.0000
  H   H30       1.0  0.9242485923808907  0.5449932135875658  0.6438848782192421  1.0000
  H   H31       1.0  0.9242485923808907  0.9550067861926775  0.3561151215620904  1.0000
  H   H32       1.0  0.07575140826959892  0.044993213401778795  0.8561151218486801  1.0000
  H   H33       1.0  0.2204794537305766  0.3686776418785307  0.07129320188387303  1.0000
  H   H34       1.0  0.2204794537305766  0.3686776418785307  0.42870679840271664  1.0000
  H   H35       1.0  0.2204794537305766  0.13132235753013868  0.571293201378616  1.0000
  H   H36       1.0  0.779520546919913  0.8686776420643176  0.07129320188387303  1.0000
  H   H37       1.0  0.779520546919913  0.6313223577159258  0.9287067986893064  1.0000
  H   H38       1.0  0.779520546919913  0.6313223577159258  0.571293201378616  1.0000
  H   H39       1.0  0.779520546919913  0.8686776420643176  0.42870679840271664  1.0000
  H   H40       1.0  0.2204794537305766  0.13132235753013868  0.9287067986893064  1.0000
  H   H41       1.0  0.8555828444849471  0.3346770527423427  0.059962451392751276  1.0000
  H   H42       1.0  0.8555828444849471  0.3346770527423427  0.44003754889383834  1.0000
  H   H43       1.0  0.8555828444849471  0.16532294744344425  0.5599624508874942  1.0000
  H   H44       1.0  0.14441715616554254  0.8346770521510121  0.059962451392751276  1.0000
  H   H45       1.0  0.14441715616554254  0.6653229476292314  0.940037549180428  1.0000
  H   H46       1.0  0.14441715616554254  0.6653229476292314  0.5599624508874942  1.0000
  H   H47       1.0  0.14441715616554254  0.8346770521510121  0.44003754889383834  1.0000
  H   H48       1.0  0.8555828444849471  0.16532294744344425  0.940037549180428  1.0000
  H   H49       1.0  0.9791653526477838  0.3569225276622252  0.9357944418483033  1.0000
  H   H50       1.0  0.9791653526477838  0.3569225276622252  0.5642055582196189  1.0000
  H   H51       1.0  0.9791653526477838  0.14307747252356182  0.4357944415617137  1.0000
  H   H52       1.0  0.020834646463596614  0.8569225278480123  0.9357944418483033  1.0000
  H   H53       1.0  0.020834646463596614  0.6430774727093488  0.06420555793302928  1.0000
  H   H54       1.0  0.020834646463596614  0.6430774727093488  0.4357944415617137  1.0000
  H   H55       1.0  0.020834646463596614  0.8569225278480123  0.5642055582196189  1.0000
  H   H56       1.0  0.9791653526477838  0.14307747252356182  0.06420555793302928  1.0000
  H   H57       1.0  0.28049707601647883  0.4866639427186151  0.934302269312967  1.0000
  H   H58       1.0  0.28049707601647883  0.4866639427186151  0.5656977307549553  1.0000
  H   H59       1.0  0.28049707601647883  0.013336056690054306  0.4343022690263773  1.0000
  H   H60       1.0  0.7195029230949015  0.9866639429044021  0.934302269312967  1.0000
  H   H61       1.0  0.7195029230949015  0.5133360568758414  0.06569773126021233  1.0000
  H   H62       1.0  0.7195029230949015  0.5133360568758414  0.4343022690263773  1.0000
  H   H63       1.0  0.7195029230949015  0.9866639429044021  0.5656977307549553  1.0000
  H   H64       1.0  0.28049707601647883  0.013336056690054306  0.06569773126021233  1.0000
  H   H65       1.0  0.3483898540022566  0.5447046752491511  0.05757718902282548  1.0000
  H   H66       1.0  0.3483898540022566  0.5447046752491511  0.44242281047191745  1.0000
  H   H67       1.0  0.3483898540022566  0.9552953245310922  0.5575771893094151  1.0000
  H   H68       1.0  0.6516101451091237  0.044704675063364126  0.05757718902282548  1.0000
  H   H69       1.0  0.6516101451091237  0.45529532434530523  0.9424228107585072  1.0000
  H   H70       1.0  0.6516101451091237  0.45529532434530523  0.5575771893094151  1.0000
  H   H71       1.0  0.6516101451091237  0.044704675063364126  0.44242281047191745  1.0000
  H   H72       1.0  0.3483898540022566  0.9552953245310922  0.9424228107585072  1.0000
  C   C1        1.0  0.9291852175905719  0.3936066011351449  0.010130460564953052  1.0000
  C   C2        1.0  0.9291852175905719  0.3936066011351449  0.4898695389297899  1.0000
  C   C3        1.0  0.9291852175905719  0.1063933982735245  0.5101304608515427  1.0000
  C   C4        1.0  0.07081478305991773  0.8936066013209318  0.010130460564953052  1.0000
  C   C5        1.0  0.07081478305991773  0.6063933984593115  0.9898695392163797  1.0000
  C   C6        1.0  0.07081478305991773  0.6063933984593115  0.5101304608515427  1.0000
  C   C7        1.0  0.07081478305991773  0.8936066013209318  0.4898695389297899  1.0000
  C   C8        1.0  0.9291852175905719  0.1063933982735245  0.9898695392163797  1.0000
  C   C9        1.0  0.21941836872459913  0.5177042164568426  0.008982032637882144  1.0000
  C   C10       1.0  0.21941836872459913  0.5177042164568426  0.49101796764870753  1.0000
  C   C11       1.0  0.21941836872459913  0.9822957833234008  0.5089820329244718  1.0000
  C   C12       1.0  0.7805816319258904  0.01770421627105558  0.008982032637882144  1.0000
  C   C13       1.0  0.7805816319258904  0.4822957839147314  0.9910179671434504  1.0000
  C   C14       1.0  0.7805816319258904  0.4822957839147314  0.5089820329244718  1.0000
  C   C15       1.0  0.7805816319258904  0.01770421627105558  0.49101796764870753  1.0000
  C   C16       1.0  0.21941836872459913  0.9822957833234008  0.9910179671434504  1.0000
  N   N1        1.0  0.47426818833500733  0.7203919916452044  0.24999999974737147  1.0000
  N   N2        1.0  0.47426818833500733  0.779608008135039  0.7500000000339612  1.0000
  N   N3        1.0  0.525731810776373  0.22039199223653502  0.24999999974737147  1.0000
  N   N4        1.0  0.525731810776373  0.27960800794925195  0.7500000000339612  1.0000
  N   N5        1.0  0.11704174171640405  0.43074552078328404  0.06677830821977897  1.0000
  N   N6        1.0  0.11704174171640405  0.43074552078328404  0.43322169206681066  1.0000
  N   N7        1.0  0.11704174171640405  0.06925447940250297  0.5667783085063686  1.0000
  N   N8        1.0  0.8829582573949764  0.930745520969071  0.06677830821977897  1.0000
  N   N9        1.0  0.8829582573949764  0.56925447958829  0.9332216915615535  1.0000
  N   N10       1.0  0.8829582573949764  0.56925447958829  0.5667783085063686  1.0000
  N   N11       1.0  0.8829582573949764  0.930745520969071  0.43322169206681066  1.0000
  N   N12       1.0  0.11704174171640405  0.06925447940250297  0.9332216915615535  1.0000
  O   O1        1.0  0.04532756323402237  0.014551505974368256  0.24999999974737147  1.0000
  O   O2        1.0  0.04532756323402237  0.4854484942114188  0.7500000000339612  1.0000
  O   O3        1.0  0.954672435877358  0.5145515061601553  0.24999999974737147  1.0000
  O   O4        1.0  0.954672435877358  0.9854484936200881  0.7500000000339612  1.0000
  Cl  Cl1       1.0  0.0062122605064823646  0.24865016696426068  0.24999999974737147  1.0000
  Cl  Cl2       1.0  0.0062122605064823646  0.2513498332215263  0.7500000000339612  1.0000
  Cl  Cl3       1.0  0.9937877401440073  0.74865016637293  0.24999999974737147  1.0000
  Cl  Cl4       1.0  0.9937877401440073  0.7513498334073133  0.7500000000339612  1.0000
  Cl  Cl5       1.0  0.4945182703303732  0.4759272955624914  0.24999999974737147  1.0000
  Cl  Cl6       1.0  0.4945182703303732  0.02407270462329555  0.7500000000339612  1.0000
  Cl  Cl7       1.0  0.5054817287810071  0.9759272949711608  0.24999999974737147  1.0000
  Cl  Cl8       1.0  0.5054817287810071  0.5240727048090825  0.7500000000339612  1.0000
  Cl  Cl9       1.0  0.4172329611530232  0.2500000000928935  0.0  1.0000
  Cl  Cl10      1.0  0.4172329611530232  0.2500000000928935  0.5000000002865896  1.0000
  Cl  Cl11      1.0  0.5827670394974663  0.7500000002786805  0.0  1.0000
  Cl  Cl12      1.0  0.5827670394974663  0.7500000002786805  0.5000000002865896  1.0000
