data_image0
_chemical_formula_structural       H28C42N4F32I4
_chemical_formula_sum              "H28 C42 N4 F32 I4"
_cell_length_a       13.257870031104126
_cell_length_b       5.258721187192311
_cell_length_c       18.74660960440118
_cell_angle_alpha    90.0
_cell_angle_beta     104.40383443920616
_cell_angle_gamma    90.0

_space_group_name_H-M_alt    "P 1"
_space_group_IT_number       1

loop_
  _space_group_symop_operation_xyz
  'x, y, z'

loop_
  _atom_site_type_symbol
  _atom_site_label
  _atom_site_symmetry_multiplicity
  _atom_site_fract_x
  _atom_site_fract_y
  _atom_site_fract_z
  _atom_site_occupancy
  H   H1        1.0  0.3131781752941586  0.4951261813121833  0.7426342017997426  1.0000
  H   H2        1.0  0.1868218250430014  0.4951261813121833  0.7573657982885207  1.0000
  H   H3        1.0  0.6868218252153749  0.5048738192217276  0.2573657981430638  1.0000
  H   H4        1.0  0.8131781747111652  0.5048738192217276  0.2426342016511284  1.0000
  H   H5        1.0  0.22763241507834459  0.06466354421454983  0.8221005394229289  1.0000
  H   H6        1.0  0.2723675850694257  0.06466354421454983  0.677899460114602  1.0000
  H   H7        1.0  0.772367585431189  0.9353364544177581  0.1778994605198776  1.0000
  H   H8        1.0  0.7276324146847407  0.9353364544177581  0.32210053982504705  1.0000
  H   H9        1.0  0.3572059759790337  0.10020063457316174  0.8146108062993948  1.0000
  H   H10       1.0  0.14279402435812624  0.10020063457316174  0.6853891937888685  1.0000
  H   H11       1.0  0.6427940245304999  0.8997993659607492  0.18538919364341178  1.0000
  H   H12       1.0  0.85720597539604  0.8997993659607492  0.3146108061507804  1.0000
  H   H13       1.0  0.4252682768669605  0.6106301371939552  0.8555637759129916  1.0000
  H   H14       1.0  0.07473172271483228  0.6106301371939552  0.6444362241721142  1.0000
  H   H15       1.0  0.5747317228872059  0.3893698633399557  0.14443622402665737  1.0000
  H   H16       1.0  0.9252682770393341  0.3893698633399557  0.35556377576753484  1.0000
  H   H17       1.0  0.4603361231805787  0.8624072124313118  0.970004134928636  1.0000
  H   H18       1.0  0.039663876401214146  0.8624072124313118  0.5299958651564699  1.0000
  H   H19       1.0  0.5396638765735877  0.1375927881025991  0.029995865011013072  1.0000
  H   H20       1.0  0.9603361233529524  0.1375927881025991  0.4700041347831792  1.0000
  H   H21       1.0  0.2575678099056153  0.4280132164986918  0.055630750792085015  1.0000
  H   H22       1.0  0.24243219025445661  0.4280132164986918  0.44436924890395196  1.0000
  H   H23       1.0  0.7424321906039183  0.5719867821336162  0.9443692491507215  1.0000
  H   H24       1.0  0.7575678094997098  0.5719867821336162  0.555630751035697  1.0000
  H   H25       1.0  0.21280773488410992  0.15639375443654296  0.9433372383907999  1.0000
  H   H26       1.0  0.28719226469768294  0.15639375443654296  0.5566627616943062  1.0000
  H   H27       1.0  0.7871922650594463  0.843606244195765  0.056662762099581765  1.0000
  H   H28       1.0  0.7128077350564835  0.843606244195765  0.4433372382453429  1.0000
  C   C1        1.0  0.9335972657211566  0.8760328920308528  0.7460643791772053  1.0000
  C   C2        1.0  0.5664027343824716  0.8760328920308528  0.7539356210092132  1.0000
  C   C3        1.0  0.0664027340330099  0.12396710850305816  0.25393562076244386  1.0000
  C   C4        1.0  0.4335972653716948  0.12396710850305816  0.24606437893043576  1.0000
  C   C5        1.0  0.9478945893875111  0.0453095460889447  0.8160750069082205  1.0000
  C   C6        1.0  0.5521054105267273  0.0453095460889447  0.6839249927274655  1.0000
  C   C7        1.0  0.052105410366655426  0.9546904544449663  0.18392499303142848  1.0000
  C   C8        1.0  0.4478945892274391  0.9546904544449663  0.31607500721218357  1.0000
  C   C9        1.0  0.9765650371651252  0.899347235126015  0.8918089817713989  1.0000
  C   C10       1.0  0.5234349621831358  0.899347235126015  0.6081910184118623  1.0000
  C   C11       1.0  0.023434962589041333  0.10065276540789599  0.10819101816825023  1.0000
  C   C12       1.0  0.4765650375710306  0.10065276540789599  0.39180898152778676  1.0000
  C   C13       1.0  0.9766220159493636  0.06709488247053873  0.9617841073713126  1.0000
  C   C14       1.0  0.5233779841542645  0.06709488247053873  0.538215892815106  1.0000
  C   C15       1.0  0.023377984560170054  0.9329051161617692  0.03821589257149396  1.0000
  C   C16       1.0  0.4766220155999019  0.9329051161617692  0.4617841071245431  1.0000
  C   C17       1.0  0.24999999979089643  0.3702786268156626  0.750000000042553  1.0000
  C   C18       1.0  0.7499999999632699  0.6297213737182483  0.2499999998970961  1.0000
  C   C19       1.0  0.287425373965786  0.20627572966635221  0.8191422192415769  1.0000
  C   C20       1.0  0.212574626371374  0.20627572966635221  0.6808577808466864  1.0000
  C   C21       1.0  0.7125746265437476  0.7937242708675587  0.18085778070122954  1.0000
  C   C22       1.0  0.7874253733827925  0.7937242708675587  0.31914221909296264  1.0000
  C   C23       1.0  0.3138919191881785  0.360874874793129  0.8886370289836537  1.0000
  C   C24       1.0  0.18610808095959186  0.360874874793129  0.6113629705538772  1.0000
  C   C25       1.0  0.6861080813213551  0.639125123839179  0.11136297095915282  1.0000
  C   C26       1.0  0.8138919187945745  0.639125123839179  0.3886370293857718  1.0000
  C   C27       1.0  0.38500617883657545  0.5630939014625708  0.8977985456788031  1.0000
  C   C28       1.0  0.11499382074521734  0.5630939014625708  0.6022014544063028  1.0000
  C   C29       1.0  0.614993820917591  0.43690609907134026  0.10220145426084591  1.0000
  C   C30       1.0  0.885006179008949  0.43690609907134026  0.39779854553334626  1.0000
  C   C31       1.0  0.40522843270045483  0.7047459597261341  0.962259614395905  1.0000
  C   C32       1.0  0.09477156688133795  0.7047459597261341  0.5377403856892008  1.0000
  C   C33       1.0  0.5947715670537115  0.29525404080777695  0.03774038554374385  1.0000
  C   C34       1.0  0.9052284328728286  0.29525404080777695  0.46225961425044837  1.0000
  C   C35       1.0  0.29277237538665324  0.4623155066523005  0.00975788765539686  1.0000
  C   C36       1.0  0.20722762477341866  0.4623155066523005  0.4902421120406401  1.0000
  C   C37       1.0  0.7072276251228803  0.5376844938816105  0.9902421122874095  1.0000
  C   C38       1.0  0.7927723749807477  0.5376844938816105  0.5097578878990089  1.0000
  C   C39       1.0  0.2680804876651523  0.31147727017536203  0.9468505893693322  1.0000
  C   C40       1.0  0.23191951248261788  0.31147727017536203  0.5531494101681985  1.0000
  C   C41       1.0  0.731919512089014  0.688522728456946  0.05314941057031677  1.0000
  C   C42       1.0  0.7680804880269156  0.688522728456946  0.44685058977460784  1.0000
  N   N1        1.0  0.35983462515324816  0.6570452372366177  0.017342993869859935  1.0000
  N   N2        1.0  0.14016537519621347  0.6570452372366177  0.48265700637690956  1.0000
  N   N3        1.0  0.6401653746009183  0.34295476139569026  0.9826570060697891  1.0000
  N   N4        1.0  0.8598346253133201  0.34295476139569026  0.517342993565897  1.0000
  F   F1        1.0  0.023678408753279773  0.7355759189935811  0.7526330460679802  1.0000
  F   F2        1.0  0.47632159139449054  0.7355759189935811  0.7473669534695507  1.0000
  F   F3        1.0  0.9763215917562538  0.2644240796387269  0.24736695387482632  1.0000
  F   F4        1.0  0.5236784083596759  0.2644240796387269  0.2526330464700983  1.0000
  F   F5        1.0  0.8541585541627034  0.7079042636956334  0.7430036501899198  1.0000
  F   F6        1.0  0.6458414459409247  0.7079042636956334  0.7569963499964987  1.0000
  F   F7        1.0  0.14584144559146306  0.29209573683827755  0.25699634974972935  1.0000
  F   F8        1.0  0.3541585538132417  0.29209573683827755  0.2430036499431502  1.0000
  F   F9        1.0  0.8580542472319531  0.17817772736878404  0.8111819652005141  1.0000
  F   F10       1.0  0.6419457528716749  0.17817772736878404  0.6888180349859043  1.0000
  F   F11       1.0  0.1419457525222133  0.8218222712635239  0.18881803473913492  1.0000
  F   F12       1.0  0.35805424688249143  0.8218222712635239  0.31118196495374467  1.0000
  F   F13       1.0  0.02691021602099075  0.2139038351642627  0.8160575560211645  1.0000
  F   F14       1.0  0.47308978431616927  0.2139038351642627  0.6839424440670989  1.0000
  F   F15       1.0  0.9730897837331757  0.7860961653696482  0.18394244391848466  1.0000
  F   F16       1.0  0.5269102161933643  0.7860961653696482  0.3160575558757075  1.0000
  F   F17       1.0  0.07335961782140706  0.7952751840477181  0.8998349341750732  1.0000
  F   F18       1.0  0.4266403823263633  0.7952751840477181  0.600165065362458  1.0000
  F   F19       1.0  0.9266403826881267  0.2047248164861928  0.10016506576773346  1.0000
  F   F20       1.0  0.5733596174278031  0.2047248164861928  0.3998349345771912  1.0000
  F   F21       1.0  0.9063010044999394  0.7079132525730272  0.8893701079492335  1.0000
  F   F22       1.0  0.5936989956036887  0.7079132525730272  0.610629892237185  1.0000
  F   F23       1.0  0.09369899525422697  0.2920867479608838  0.11062989199041555  1.0000
  F   F24       1.0  0.4063010041504778  0.2920867479608838  0.3893701077024641  1.0000
  F   F25       1.0  0.033186421815381756  0.28255538506564704  0.9595334749061488  1.0000
  F   F26       1.0  0.46681357776641114  0.28255538506564704  0.5404665251789571  1.0000
  F   F27       1.0  0.9668135779387846  0.7174446154682639  0.0404665250335003  1.0000
  F   F28       1.0  0.533186422177145  0.7174446154682639  0.4595334753114243  1.0000
  F   F29       1.0  0.8758795897270951  0.13288728478360462  0.9580110943893724  1.0000
  F   F30       1.0  0.6241204101871431  0.13288728478360462  0.5419889052463137  1.0000
  F   F31       1.0  0.12412041002707137  0.8671127157503065  0.041988905550276734  1.0000
  F   F32       1.0  0.37587958956702316  0.8671127157503065  0.4580110946933353  1.0000
  I   I1        1.0  0.9020526385727307  0.09979731598590413  0.6430227063013414  1.0000
  I   I2        1.0  0.5979473615308973  0.09979731598590413  0.8569772938850772  1.0000
  I   I3        1.0  0.09794736193680285  0.9002026845480069  0.3569772936414651  1.0000
  I   I4        1.0  0.40205263841265876  0.9002026845480069  0.1430227066053044  1.0000
