data_image0
_chemical_formula_structural       H54C54N6O22S10Cl8
_chemical_formula_sum              "H54 C54 N6 O22 S10 Cl8"
_cell_length_a       10.308933151940394
_cell_length_b       12.417293075777643
_cell_length_c       15.476933745112406
_cell_angle_alpha    67.7182227482578
_cell_angle_beta     84.04642958292916
_cell_angle_gamma    79.67100925461443

_space_group_name_H-M_alt    "P 1"
_space_group_IT_number       1

loop_
  _space_group_symop_operation_xyz
  'x, y, z'

loop_
  _atom_site_type_symbol
  _atom_site_label
  _atom_site_symmetry_multiplicity
  _atom_site_fract_x
  _atom_site_fract_y
  _atom_site_fract_z
  _atom_site_occupancy
  H   H1        1.0  0.5673377003625336  0.7528929750295533  0.6308604388644339  1.0000
  H   H2        1.0  0.4326622996270685  0.2471070246470968  0.36913956137270076  1.0000
  H   H3        1.0  0.6183136773367549  0.45061583314824494  0.9182045667139649  1.0000
  H   H4        1.0  0.38168632265284713  0.549384166528405  0.08179543352316973  1.0000
  H   H5        1.0  0.4394254488001872  0.32718300509909143  0.9842241356830004  1.0000
  H   H6        1.0  0.5605745511894148  0.6728169945775585  0.015775864554134284  1.0000
  H   H7        1.0  0.31452866870356233  0.4113333941864904  0.7049800544621239  1.0000
  H   H8        1.0  0.6854713313238778  0.5886666058157327  0.29501994507621104  1.0000
  H   H9        1.0  0.4964262425219901  0.5295751922356305  0.6388176177860072  1.0000
  H   H10       1.0  0.5035737572974349  0.470424808259161  0.3611823824520593  1.0000
  H   H11       1.0  0.7597637667948286  0.7363242553698311  0.9121244392801101  1.0000
  H   H12       1.0  0.24023623323261134  0.26367574463239196  0.08787556025822472  1.0000
  H   H13       1.0  0.9634606109118906  0.8121153131581071  0.9213163478546113  1.0000
  H   H14       1.0  0.03653938911554943  0.18788468684411613  0.07868365168372361  1.0000
  H   H15       1.0  0.9383363876390242  0.03731177262412729  0.6302531840807859  1.0000
  H   H16       1.0  0.06166361221823888  0.9626882281962374  0.3697468154584809  1.0000
  H   H17       1.0  0.7339077925595678  0.9638466799095711  0.6207808752518272  1.0000
  H   H18       1.0  0.2660922072976953  0.03615332091079362  0.37921912428743954  1.0000
  H   H19       1.0  0.34010901504487817  0.7601279130360387  0.522407665718848  1.0000
  H   H20       1.0  0.6598909849447238  0.2398720866406112  0.47759233451828664  1.0000
  H   H21       1.0  0.3588537391770485  0.7721749768018776  0.31398897892153715  1.0000
  H   H22       1.0  0.6411462608125534  0.22782502287477238  0.6860110213155974  1.0000
  H   H23       1.0  0.28718283002670686  0.844923793298273  0.15172997647669498  1.0000
  H   H24       1.0  0.7128171698305561  0.15507620752209167  0.8482700230625719  1.0000
  H   H25       1.0  0.9393556168835568  0.6766223360948341  0.24739277360515785  1.0000
  H   H26       1.0  0.060644383143883145  0.323377663907389  0.752607225933177  1.0000
  H   H27       1.0  0.010942725012938012  0.6032531417333612  0.41202250991025846  1.0000
  H   H28       1.0  0.9890572748064871  0.3967468587614304  0.587977490327808  1.0000
  H   H29       1.0  0.9843855821674721  0.6194898644256085  0.6903345567341855  1.0000
  H   H30       1.0  0.015614417822130034  0.38051013525104155  0.3096654435029491  1.0000
  H   H31       1.0  0.008054222789625604  0.5062897357889268  0.8611966471841153  1.0000
  H   H32       1.0  0.9919457770297992  0.4937102647058649  0.13880335305395125  1.0000
  H   H33       1.0  0.3221094281770593  0.6945024106132913  0.860375923018945  1.0000
  H   H34       1.0  0.6778905718503807  0.305497589388932  0.13962407651938988  1.0000
  H   H35       1.0  0.2943972991231612  0.8115354390717654  0.6911269305583994  1.0000
  H   H36       1.0  0.7056027008664407  0.18846456060488465  0.3088730696787353  1.0000
  H   H37       1.0  0.7374251394206728  0.6723147805113266  0.48947776471236226  1.0000
  H   H38       1.0  0.2625748603987521  0.32768521998346484  0.5105222355257043  1.0000
  H   H39       1.0  0.7235071019283633  0.7360327161247464  0.3635906997208456  1.0000
  H   H40       1.0  0.27649289789106185  0.26396728437004513  0.6364093005172209  1.0000
  H   H41       1.0  0.6110005056300988  0.639388271080658  0.43575587398065574  1.0000
  H   H42       1.0  0.3889994943595033  0.36061172859599183  0.5642441262564789  1.0000
  H   H43       1.0  0.622907145994893  0.9953790173681043  0.4547826457592989  1.0000
  H   H44       1.0  0.37709285386237007  0.004620983452260391  0.5452173537799678  1.0000
  H   H45       1.0  0.7315221758077333  0.9425932947978155  0.37742385354243274  1.0000
  H   H46       1.0  0.2684778241818686  0.05740670487883455  0.6225761466947017  1.0000
  H   H47       1.0  0.743910862092066  0.8634615019581259  0.5010886866547806  1.0000
  H   H48       1.0  0.25608913789753596  0.13653849771852425  0.498911313582354  1.0000
  H   H49       1.0  0.4321953481785914  0.9119448361247156  0.9858180289491886  1.0000
  H   H50       1.0  0.5678046516408336  0.08805516437007584  0.01418197128887805  1.0000
  H   H51       1.0  0.3515058106717601  0.8781284622369683  0.9025610843710605  1.0000
  H   H52       1.0  0.648494189185503  0.12187153858339657  0.09743891516820628  1.0000
  H   H53       1.0  0.266751632186314  0.9846256982028811  0.9493024107192576  1.0000
  H   H54       1.0  0.7332483676331111  0.015374302291910297  0.050697589518808886  1.0000
  C   C1        1.0  0.5669015886176739  0.49618662756970466  0.7754942858512565  1.0000
  C   C2        1.0  0.43309841137192817  0.5038133721069452  0.22450571438587816  1.0000
  C   C3        1.0  0.5524019107704266  0.4402521766584123  0.8722359188842443  1.0000
  C   C4        1.0  0.4475980892191755  0.5597478230182376  0.12776408135289033  1.0000
  C   C5        1.0  0.4527856001973282  0.3710660491800354  0.9089759309206321  1.0000
  C   C6        1.0  0.5472143998301117  0.6289339508221878  0.09102406861770285  1.0000
  C   C7        1.0  0.36903357862294794  0.3612523665146352  0.8478661440365113  1.0000
  C   C8        1.0  0.6309664213666542  0.6387476331620148  0.15213385620062336  1.0000
  C   C9        1.0  0.3823341716544245  0.41873038823403286  0.7510936843221862  1.0000
  C   C10       1.0  0.6176658283351774  0.5812696114426169  0.24890631591494863  1.0000
  C   C11       1.0  0.48311921510143196  0.48635892781001866  0.7142636540271523  1.0000
  C   C12       1.0  0.51688078488817  0.5136410718666314  0.2857363462099823  1.0000
  C   C13       1.0  0.7338944108736909  0.8473214794778342  0.7669518595438314  1.0000
  C   C14       1.0  0.2661055891159112  0.1526785201988157  0.2330481406933032  1.0000
  C   C15       1.0  0.7980882447576898  0.8032080751119242  0.8511588570490554  1.0000
  C   C16       1.0  0.20191175526975022  0.196791924890299  0.14884114248927965  1.0000
  C   C17       1.0  0.9121448442105788  0.8456072528277323  0.8561844177317821  1.0000
  C   C18       1.0  0.08785515577902317  0.1543927468489177  0.14381558250535242  1.0000
  C   C19       1.0  0.9598360828568955  0.9309658616263069  0.7768138597183845  1.0000
  C   C20       1.0  0.04016391810395676  0.06903413804494729  0.2231861405182646  1.0000
  C   C21       1.0  0.8974244281976393  0.9729565138549344  0.6917040934872488  1.0000
  C   C22       1.0  0.10257557179196274  0.027043485821715417  0.3082959067498859  1.0000
  C   C23       1.0  0.7832150660248984  0.9309641735328317  0.686785963524697  1.0000
  C   C24       1.0  0.21678493379452674  0.06903582696195976  0.31321403671336956  1.0000
  C   C25       1.0  0.18785966897044518  0.6841405747616207  0.3719264506158981  1.0000
  C   C26       1.0  0.8121403308868177  0.3158594260587441  0.6280735489233688  1.0000
  C   C27       1.0  0.2667911467244318  0.7514904479548317  0.29989393985572826  1.0000
  C   C28       1.0  0.7332088533030081  0.24850955204739153  0.7001060596826066  1.0000
  C   C29       1.0  0.22699997462391833  0.7923354758151522  0.2084955126320631  1.0000
  C   C30       1.0  0.7730000251955066  0.2076645246796394  0.7915044876060033  1.0000
  C   C31       1.0  0.10941158778896258  0.7645330719125853  0.1910828596277792  1.0000
  C   C32       1.0  0.8905884122006396  0.23546692776406464  0.8089171406093555  1.0000
  C   C33       1.0  0.030022095157632402  0.6978266348767279  0.26297048468087125  1.0000
  C   C34       1.0  0.9699779048319696  0.30217336479992213  0.7370295155562634  1.0000
  C   C35       1.0  0.06969048523265652  0.657348438547924  0.3548002878809042  1.0000
  C   C36       1.0  0.9303095147569456  0.34265156112872597  0.6451997123562304  1.0000
  C   C37       1.0  0.1364666192660158  0.7223298189701656  0.6821813080685922  1.0000
  C   C38       1.0  0.8635333807614244  0.2776701810320575  0.31781869146974273  1.0000
  C   C39       1.0  0.05712568555949122  0.6358291540817287  0.728174860139735  1.0000
  C   C40       1.0  0.9428743144301108  0.3641708455949214  0.27182514009739966  1.0000
  C   C41       1.0  0.07117306543196263  0.5719844150623289  0.8234630893252287  1.0000
  C   C42       1.0  0.9288269343874624  0.4280155854324627  0.1765369109128378  1.0000
  C   C43       1.0  0.1650053271687527  0.5956418753941368  0.8700400337138579  1.0000
  C   C44       1.0  0.8349946728208494  0.40435812428251316  0.12995996652327677  1.0000
  C   C45       1.0  0.2474286180309563  0.6796274836718795  0.8231313676467593  1.0000
  C   C46       1.0  0.7525713819586456  0.3203725160047703  0.1768686325903754  1.0000
  C   C47       1.0  0.23277912288414715  0.74402360966404  0.7282491352554281  1.0000
  C   C48       1.0  0.7672208771054548  0.2559763900126101  0.27175086498170653  1.0000
  C   C49       1.0  0.6704215039088579  0.7060656318091572  0.4315589610339264  1.0000
  C   C50       1.0  0.329578495948405  0.2939343690112076  0.5684410385053404  1.0000
  C   C51       1.0  0.6765119641904223  0.9162327179875167  0.44481415777646127  1.0000
  C   C52       1.0  0.3234880357991799  0.08376728168913346  0.5551858424606733  1.0000
  C   C53       1.0  0.36340639080124215  0.9458282622329315  0.9291440777285103  1.0000
  C   C54       1.0  0.6365936090560208  0.054171738587433134  0.07085592181075653  1.0000
  N   N1        1.0  0.6190870928637802  0.7214689844457347  0.6943340012591769  1.0000
  N   N2        1.0  0.38091290716365983  0.2785310155564885  0.30566599827915797  1.0000
  N   N3        1.0  0.2462639226040192  0.74556112224028  0.5109843730828265  1.0000
  N   N4        1.0  0.7537360774234209  0.2544388777619432  0.4890156264555084  1.0000
  N   N5        1.0  0.418541705175601  0.04085167641953128  0.8496987178689019  1.0000
  N   N6        1.0  0.581458294814001  0.9591483232571187  0.15030128236823265  1.0000
  O   O1        1.0  0.7471685435848522  0.5665880672346192  0.6440460255316035  1.0000
  O   O2        1.0  0.2528314564047498  0.4334119324420308  0.3559539747055312  1.0000
  O   O3        1.0  0.7790362469213521  0.5644621990297909  0.8030813781084521  1.0000
  O   O4        1.0  0.22096375289807316  0.43553780146500054  0.19691862212961442  1.0000
  O   O5        1.0  0.49175253043681616  0.8998562711472771  0.7100934034316206  1.0000
  O   O6        1.0  0.508247469552786  0.10014372852937284  0.28990659680551395  1.0000
  O   O7        1.0  0.5466387693189985  0.7257414882957024  0.8559881850547001  1.0000
  O   O8        1.0  0.4533612306706035  0.27425851138094764  0.14401181518243455  1.0000
  O   O9        1.0  0.3867037278736373  0.582055585718208  0.48030633931182243  1.0000
  O   O10       1.0  0.6132962721159648  0.41794441395844195  0.5196936609253122  1.0000
  O   O11       1.0  0.1595771805989169  0.5509262472628481  0.5490078624741729  1.0000
  O   O12       1.0  0.840422819428523  0.4490737527393752  0.45099213706416197  1.0000
  O   O13       1.0  0.14822633947314875  0.9221517666811094  0.5442754507617436  1.0000
  O   O14       1.0  0.8517736605542914  0.07784823332111378  0.4557245487765913  1.0000
  O   O15       1.0  1.900668673454261e-05  0.7898386415636295  0.5306233986820587  1.0000
  O   O16       1.0  0.9999809933028674  0.21016135811302059  0.4693766015550759  1.0000
  O   O17       1.0  0.48839917055825494  0.7901508350565827  0.5363569708479047  1.0000
  O   O18       1.0  0.5116008294691851  0.20984916494564054  0.4636430286904303  1.0000
  O   O19       1.0  0.5304485567365336  0.05976468270266517  0.8562264924736205  1.0000
  O   O20       1.0  0.46955144325306847  0.9402353169739847  0.14377350776351402  1.0000
  O   O21       1.0  0.34886514966268845  0.09535167374964997  0.7816348619272476  1.0000
  O   O22       1.0  0.6511348503269134  0.9046483259270002  0.218365138309887  1.0000
  S   S1        1.0  0.6942726365699322  0.5822333662174357  0.7290579770486669  1.0000
  S   S2        1.0  0.3057273634575079  0.4177666337847875  0.27094202248966803  1.0000
  S   S3        1.0  0.5844691533607085  0.7995764533366692  0.7624302370838683  1.0000
  S   S4        1.0  0.4155308466288936  0.20042354633998072  0.23756976315326647  1.0000
  S   S5        1.0  0.24771195161482312  0.6260112489975166  0.4857665147056933  1.0000
  S   S6        1.0  0.7522880483747788  0.37398875067913334  0.5142334855314413  1.0000
  S   S7        1.0  0.11914275428628425  0.8061094916956583  0.5620183883666582  1.0000
  S   S8        1.0  0.8808572457033178  0.19389050798099194  0.4379816118704763  1.0000
  S   S9        1.0  0.5580340673003694  0.8310733065488293  0.4380457407978749  1.0000
  S   S10       1.0  0.44196593255689354  0.16892669427153556  0.5619542587413919  1.0000
  Cl  Cl1       1.0  0.24334610753693658  0.2772973517722158  0.8933658380815899  1.0000
  Cl  Cl2       1.0  0.7566538924526653  0.7227026479044343  0.10663416215554482  1.0000
  Cl  Cl3       1.0  0.098364257137386  0.9871331697160814  0.7837242297097532  1.0000
  Cl  Cl4       1.0  0.901635742682039  0.012866830778710179  0.2162757705283132  1.0000
  Cl  Cl5       1.0  0.0627534597425484  0.8163877255691435  0.076099316075418  1.0000
  Cl  Cl6       1.0  0.9372465402470536  0.18361227410750644  0.9239006841617167  1.0000
  Cl  Cl7       1.0  0.179506692618961  0.5213114961731076  0.9891250826163129  1.0000
  Cl  Cl8       1.0  0.8204933073706411  0.4786885035035425  0.010874917620821592  1.0000
