data_image0
_chemical_formula_structural       H148C90N4F16Cl4Br4I8
_chemical_formula_sum              "H148 C90 N4 F16 Cl4 Br4 I8"
_cell_length_a       13.03503521560179
_cell_length_b       14.867878278870737
_cell_length_c       16.09669909831833
_cell_angle_alpha    66.38033337770207
_cell_angle_beta     84.69336277935531
_cell_angle_gamma    80.28180937585256

_space_group_name_H-M_alt    "P 1"
_space_group_IT_number       1

loop_
  _space_group_symop_operation_xyz
  'x, y, z'

loop_
  _atom_site_type_symbol
  _atom_site_label
  _atom_site_symmetry_multiplicity
  _atom_site_fract_x
  _atom_site_fract_y
  _atom_site_fract_z
  _atom_site_occupancy
  H   H1        1.0  0.020441988762333416  0.17952865718641  0.5421575370838316  1.0000
  H   H2        1.0  0.9795580115552988  0.8204713421602265  0.4578424633720902  1.0000
  H   H3        1.0  0.8881998406840426  0.16945134733060233  0.5749800439708248  1.0000
  H   H4        1.0  0.11180015950589384  0.8305486526993568  0.42501995648288127  1.0000
  H   H5        1.0  0.8966714735548297  0.25019905053823005  0.6828689632519148  1.0000
  H   H6        1.0  0.10332852663510682  0.7498009494917292  0.3171310372017913  1.0000
  H   H7        1.0  0.028353067532294975  0.2664792133000135  0.6489183720389252  1.0000
  H   H8        1.0  0.9716469318899211  0.7335207867338465  0.35108162841317425  1.0000
  H   H9        1.0  0.943817441787681  0.06842221176259515  0.7378546699397579  1.0000
  H   H10       1.0  0.056182558402255355  0.931577788267364  0.26214533051394834  1.0000
  H   H11       1.0  0.07496558157560883  0.08114140825342817  0.7009052566449769  1.0000
  H   H12       1.0  0.9250344186379916  0.9188585920653549  0.2990947431304291  1.0000
  H   H13       1.0  0.054876636842287524  0.045525796317460676  0.8670057707870417  1.0000
  H   H14       1.0  0.9451233626035926  0.9544742040052232  0.1329942289867576  1.0000
  H   H15       1.0  0.9568813664120641  0.15036814529565712  0.844767487061245  1.0000
  H   H16       1.0  0.043118633161512085  0.8496318543437041  0.15523251271476987  1.0000
  H   H17       1.0  0.0870617332619961  0.16723221680621073  0.8062220725625004  1.0000
  H   H18       1.0  0.9129382661602201  0.8327677832276492  0.193777927889599  1.0000
  H   H19       1.0  0.8374396871503496  0.3801264306596756  0.5743752016448143  1.0000
  H   H20       1.0  0.1625603124232265  0.6198735689796855  0.42562479813120085  1.0000
  H   H21       1.0  0.8070883432678858  0.4420450858262522  0.45853333826503767  1.0000
  H   H22       1.0  0.19291165692205062  0.5579549142037069  0.5414666621886686  1.0000
  H   H23       1.0  0.7291903181013482  0.24839206587409146  0.5913572002172075  1.0000
  H   H24       1.0  0.270809682088588  0.7516079341558677  0.4086428002364986  1.0000
  H   H25       1.0  0.7065538104178263  0.3038806459270183  0.47323259383991945  1.0000
  H   H26       1.0  0.2934461897721102  0.6961193541029408  0.5267674066137867  1.0000
  H   H27       1.0  0.6342703836759391  0.39323625170356963  0.6132547430031043  1.0000
  H   H28       1.0  0.3657296165376613  0.6067637486152135  0.3867452567723018  1.0000
  H   H29       1.0  0.6319752633829212  0.464871813626278  0.4957681981842267  1.0000
  H   H30       1.0  0.3680247361906549  0.5351281860130833  0.5042318015917883  1.0000
  H   H31       1.0  0.4586727101076107  0.4037701368758178  0.5569909165448063  1.0000
  H   H32       1.0  0.5413272893382696  0.596229863446866  0.443009083228993  1.0000
  H   H33       1.0  0.5215282883932373  0.2801208548729504  0.5895243700613437  1.0000
  H   H34       1.0  0.47847171192439497  0.7198791444736861  0.41047563039457813  1.0000
  H   H35       1.0  0.515227828073836  0.36001306953439005  0.47320396969737455  1.0000
  H   H36       1.0  0.4847721721397643  0.639986930784393  0.5267960300780316  1.0000
  H   H37       1.0  0.9629803133910493  0.4548882776241114  0.4209927384324104  1.0000
  H   H38       1.0  0.03701968615886297  0.5451117217264259  0.5790072620219048  1.0000
  H   H39       1.0  0.01541497434295241  0.38629783670706624  0.530123966813215  1.0000
  H   H40       1.0  0.9845850259983439  0.6137021629283941  0.4698760329644067  1.0000
  H   H41       1.0  0.13483593585037823  0.2736573517548096  0.46377438892941597  1.0000
  H   H42       1.0  0.8651640635955021  0.7263426485678742  0.5362256108443834  1.0000
  H   H43       1.0  0.08612510481006448  0.35340446913120127  0.3554529810191288  1.0000
  H   H44       1.0  0.9138748946358157  0.6465955311914828  0.6445470187546704  1.0000
  H   H45       1.0  0.19922794750713907  0.41222462648039576  0.48039812308547997  1.0000
  H   H46       1.0  0.8007720527064612  0.5877753738383874  0.5196018766899261  1.0000
  H   H47       1.0  0.14263050481604  0.49714056646963134  0.376991156365072  1.0000
  H   H48       1.0  0.8573694946061763  0.5028594335642286  0.6230088440870274  1.0000
  H   H49       1.0  0.33364845160020706  0.4497573302300219  0.3532204036523964  1.0000
  H   H50       1.0  0.6663515486133932  0.5502426700887614  0.6467795961230096  1.0000
  H   H51       1.0  0.25897511246325816  0.41026299305851277  0.2909031952983426  1.0000
  H   H52       1.0  0.7410248877503423  0.5897370072602703  0.7090968044770634  1.0000
  H   H53       1.0  0.31675221533354636  0.32300703049923696  0.39343725807339686  1.0000
  H   H54       1.0  0.6832477848800541  0.6769929698195462  0.6065627417020093  1.0000
  H   H55       1.0  0.9743174768982703  0.2518145709684753  0.39399589515291167  1.0000
  H   H56       1.0  0.025682523315330136  0.7481854293503077  0.6060041046224944  1.0000
  H   H57       1.0  0.8460906041513239  0.2334862640202033  0.43453867090028875  1.0000
  H   H58       1.0  0.15390939618997235  0.7665137356152572  0.565461328877333  1.0000
  H   H59       1.0  0.9084071482782807  0.4348367804863126  0.3052296478338377  1.0000
  H   H60       1.0  0.09159285191165556  0.5651632195436467  0.6947703526198683  1.0000
  H   H61       1.0  0.7801085559440212  0.4111145368280214  0.33918503426757235  1.0000
  H   H62       1.0  0.219891444397275  0.5888854628074391  0.6608149655100494  1.0000
  H   H63       1.0  0.8362217154050405  0.4149510452160764  0.18509043924236  1.0000
  H   H64       1.0  0.16377828478489592  0.5850489548138827  0.8149095612113462  1.0000
  H   H65       1.0  0.9310630596224061  0.3112457611398113  0.2331106773903325  1.0000
  H   H66       1.0  0.06893694069522613  0.6887542382068254  0.7668893230655893  1.0000
  H   H67       1.0  0.7693755532004832  0.2634903873935889  0.19700464105779006  1.0000
  H   H68       1.0  0.23062444701311713  0.7365096129251942  0.8029953587176161  1.0000
  H   H69       1.0  0.6945000184131312  0.31223613682887474  0.2713197209897947  1.0000
  H   H70       1.0  0.3054999819045009  0.6877638625177617  0.7286802794661272  1.0000
  H   H71       1.0  0.7911436671444849  0.20614137771140148  0.3144030187965528  1.0000
  H   H72       1.0  0.20885633230139522  0.7938586226112826  0.6855969809772465  1.0000
  H   H73       1.0  0.5458884685277265  0.859544793840026  0.9634383421662814  1.0000
  H   H74       1.0  0.4541115309181536  0.140455206482658  0.03656165760751782  1.0000
  H   H75       1.0  0.6529486997653693  0.8960551752937465  0.8884609790963085  1.0000
  H   H76       1.0  0.3470513005759269  0.10394482434171382  0.11153902068131329  1.0000
  H   H77       1.0  0.6186781129072685  0.6786946001955843  0.9982561504340807  1.0000
  H   H78       1.0  0.38132188730633176  0.32130540012319886  0.0017438493413253942  1.0000
  H   H79       1.0  0.7205977616577006  0.7190526063849081  0.9172005380355986  1.0000
  H   H80       1.0  0.27940223855589963  0.2809473939338752  0.0827994617398074  1.0000
  H   H81       1.0  0.48770813105941246  0.7740954923529346  0.87776389600652  1.0000
  H   H82       1.0  0.5122918692818839  0.22590450728252578  0.12223610377110168  1.0000
  H   H83       1.0  0.5894733770414184  0.8144725140811734  0.7977316093574832  1.0000
  H   H84       1.0  0.41052662329987777  0.18552748555428702  0.20226839042013853  1.0000
  H   H85       1.0  0.5276105230202015  0.6712646110398276  0.7842105355721862  1.0000
  H   H86       1.0  0.4723894765533746  0.3287353885995335  0.21578946420382875  1.0000
  H   H87       1.0  0.5523470612127064  0.5970851659710669  0.899996905285036  1.0000
  H   H88       1.0  0.44765293897722996  0.40291483405889233  0.1000030951686702  1.0000
  H   H89       1.0  0.6573550344975593  0.6362414570506102  0.8214414652299116  1.0000
  H   H90       1.0  0.34264496494832103  0.36375854327207374  0.17855853454388765  1.0000
  H   H91       1.0  0.8168223014109038  0.7344629532285718  0.019075259218472723  1.0000
  H   H92       1.0  0.18317769803497644  0.265537047094112  0.9809247405553266  1.0000
  H   H93       1.0  0.8373908575494416  0.808549686236198  0.07646952983346712  1.0000
  H   H94       1.0  0.16260914189643882  0.19145031408648588  0.9235304699403322  1.0000
  H   H95       1.0  0.8220772810320308  0.8771391248206475  0.8702680333524585  1.0000
  H   H96       1.0  0.17792271918156952  0.12286087549813575  0.1297319664229476  1.0000
  H   H97       1.0  0.8330225878589824  0.9575001451921212  0.9237936987731252  1.0000
  H   H98       1.0  0.1669774116909297  0.04249985415841605  0.07620630168118982  1.0000
  H   H99       1.0  0.0035240666543609922  0.9114008075500324  0.8719320683762957  1.0000
  H   H100      1.0  0.9964759335592396  0.08859919276875065  0.1280679313991104  1.0000
  H   H101      1.0  0.002646692331327672  0.8516395695948943  0.9912125624989265  1.0000
  H   H102      1.0  0.9973533070908887  0.14836043043896552  0.008787437953172831  1.0000
  H   H103      1.0  0.09324347937457513  0.7376808326336033  0.9180823374629545  1.0000
  H   H104      1.0  0.9067565208390252  0.26231916768518  0.08191766231245146  1.0000
  H   H105      1.0  0.9791263156572981  0.7544473933593705  0.8582196177265146  1.0000
  H   H106      1.0  0.02087368453263815  0.24555260667058862  0.14178038272719162  1.0000
  H   H107      1.0  0.9803208081611084  0.6907928255775563  0.9776202240389681  1.0000
  H   H108      1.0  0.01967919205249189  0.3092071747412269  0.022379775736437957  1.0000
  H   H109      1.0  0.6657922129882191  0.9912055449076472  0.957717379590271  1.0000
  H   H110      1.0  0.3342077864339972  0.00879445512621268  0.042282620861828296  1.0000
  H   H111      1.0  0.573608167082369  0.9437513353233613  0.04699995401325328  1.0000
  H   H112      1.0  0.42639183323526353  0.05624866402327508  0.9530000464426687  1.0000
  H   H113      1.0  0.7978701088511192  0.9700023941379615  0.06433260338561465  1.0000
  H   H114      1.0  0.20212989149017702  0.029997605497498876  0.9356673963920071  1.0000
  H   H115      1.0  0.7223562512203009  0.9029566866842479  0.1593553812861097  1.0000
  H   H116      1.0  0.27764374899329947  0.0970433136345351  0.8406446184892964  1.0000
  H   H117      1.0  0.6513525359173356  0.11697023872566574  0.02930305180668582  1.0000
  H   H118      1.0  0.34864746427260096  0.8830297613042933  0.9706969486470203  1.0000
  H   H119      1.0  0.5892488046058533  0.047599622168268615  0.13297803673257924  1.0000
  H   H120      1.0  0.41075119558408324  0.9524003778616906  0.8670219637211269  1.0000
  H   H121      1.0  0.6899550120710523  0.16371773188434893  0.15519680185985504  1.0000
  H   H122      1.0  0.31004498750252385  0.8362822677550124  0.84480319791616  1.0000
  H   H123      1.0  0.8055181559901042  0.11279077764374927  0.11288719137778515  1.0000
  H   H124      1.0  0.19448184422349613  0.8872092226750339  0.8871128083976207  1.0000
  H   H125      1.0  0.7475008889019988  0.03998460534104396  0.21744886983569553  1.0000
  H   H126      1.0  0.2524991114392973  0.9600153942944163  0.7825511299419263  1.0000
  H   H127      1.0  0.6891696358430015  0.6848499435217859  0.11225796194555106  1.0000
  H   H128      1.0  0.3108303643469349  0.31515005650817335  0.8877420385081551  1.0000
  H   H129      1.0  0.7023101128021713  0.7609937400366716  0.1691973677759206  1.0000
  H   H130      1.0  0.29768988753912495  0.23900625959878882  0.8308026320017011  1.0000
  H   H131      1.0  0.49705704851466825  0.7517653574179589  0.0933800243180086  1.0000
  H   H132      1.0  0.502942950931212  0.24823464290472505  0.9066199754557906  1.0000
  H   H133      1.0  0.510798807995902  0.8301059264469565  0.14944240279798157  1.0000
  H   H134      1.0  0.4892011914263143  0.16989407358690342  0.8505575976541178  1.0000
  H   H135      1.0  0.5782749159401207  0.680089966440177  0.28523959686326833  1.0000
  H   H136      1.0  0.4217250842734797  0.319910033878606  0.7147604029121377  1.0000
  H   H137      1.0  0.44718798045006974  0.690503537262335  0.2594243202177944  1.0000
  H   H138      1.0  0.5528120189958105  0.30949646306034895  0.7405756795560048  1.0000
  H   H139      1.0  0.5323720455538962  0.5156570135128942  0.30305948572146946  1.0000
  H   H140      1.0  0.46762795401967994  0.48434298612646703  0.6969405140545456  1.0000
  H   H141      1.0  0.6301136488399215  0.5514809686789233  0.21762030664211834  1.0000
  H   H142      1.0  0.3698863515013747  0.4485190309565369  0.7823796931355035  1.0000
  H   H143      1.0  0.49866222758525064  0.5654521384379385  0.18725223572258484  1.0000
  H   H144      1.0  0.5013377718369656  0.4345478615959214  0.8127477647295146  1.0000
  H   H145      1.0  0.833799218218224  0.9574448025163161  0.7249908517523042  1.0000
  H   H146      1.0  0.16620078135535216  0.042555197123045056  0.27500914802371085  1.0000
  H   H147      1.0  0.7881065868653333  0.9633151585867783  0.620492167304588  1.0000
  H   H148      1.0  0.21189341332460312  0.03668484144318082  0.37950783314911823  1.0000
  C   C1        1.0  0.2209045917940247  0.6226669310129996  0.08978360285299376  1.0000
  C   C2        1.0  0.7790954077795514  0.3773330686263615  0.9102163969230211  1.0000
  C   C3        1.0  0.13266532159009942  0.5739726824535163  0.11349445426034324  1.0000
  C   C4        1.0  0.8673346787511969  0.42602731718194425  0.8865055455172784  1.0000
  C   C5        1.0  0.12036576691487262  0.5088296256487801  0.07358925653547892  1.0000
  C   C6        1.0  0.8796342326350396  0.4911703737017571  0.9264107439188362  1.0000
  C   C7        1.0  0.19134132624186143  0.4943071356048226  0.008281548730033826  1.0000
  C   C8        1.0  0.8086586733317147  0.5056928640345387  0.9917184510459812  1.0000
  C   C9        1.0  0.2786553085356847  0.5429061042261359  0.9844365094830543  1.0000
  C   C10       1.0  0.7213446916542515  0.45709389580382315  0.015563490970652032  1.0000
  C   C11       1.0  0.29306776758709874  0.6056406016969516  0.026235878549791408  1.0000
  C   C12       1.0  0.7069322326028377  0.3943593983330076  0.9737641219039147  1.0000
  C   C13       1.0  0.5487338576618659  0.9948173551696857  0.36841905881854753  1.0000
  C   C14       1.0  0.45126614176035046  0.005182644864174349  0.6315809416335517  1.0000
  C   C15       1.0  0.6496612465070701  0.9441103278844352  0.39245824725489314  1.0000
  C   C16       1.0  0.35033875293881017  0.05588967243824881  0.6075417525189061  1.0000
  C   C17       1.0  0.7131173904031912  0.9811435643174173  0.4325764794179637  1.0000
  C   C18       1.0  0.286882609042689  0.018856436005266528  0.5674235203558357  1.0000
  C   C19       1.0  0.6795912102381445  0.06757857672677275  0.44758995182096545  1.0000
  C   C20       1.0  0.3204087901031517  0.9324214229086876  0.5524100479566562  1.0000
  C   C21       1.0  0.579811953516662  0.11818022839910897  0.423333597647732  1.0000
  C   C22       1.0  0.4201880459055541  0.8818197716347509  0.5766664028043674  1.0000
  C   C23       1.0  0.5149876981345071  0.08013312270055996  0.38534678460688065  1.0000
  C   C24       1.0  0.48501230220678915  0.9198668769349003  0.6146532151707411  1.0000
  C   C25       1.0  0.9501047159350281  0.21423656269346478  0.5668668759164921  1.0000
  C   C26       1.0  0.04989528438260426  0.7857634366531716  0.4331331245394297  1.0000
  C   C27       1.0  0.9686786463017  0.21925611637170328  0.6564599407058893  1.0000
  C   C28       1.0  0.031321354015932355  0.7807438829749331  0.3435400597500326  1.0000
  C   C29       1.0  0.0048227869812529954  0.11528055605675001  0.7270303236597192  1.0000
  C   C30       1.0  0.9951772132323474  0.8847194442620331  0.27296967611568684  1.0000
  C   C31       1.0  0.027221531399050643  0.11949262937915262  0.8165224323580126  1.0000
  C   C32       1.0  0.9727784687908856  0.8805073706508066  0.18347756809569363  1.0000
  C   C33       1.0  0.8188229624162185  0.36864836333955764  0.5145812114811683  1.0000
  C   C34       1.0  0.18117703702966156  0.6313516369831264  0.485418788292631  1.0000
  C   C35       1.0  0.7218143413558038  0.3193564579532504  0.5319209780474607  1.0000
  C   C36       1.0  0.27818565883413254  0.6806435420767087  0.46807902240624544  1.0000
  C   C37       1.0  0.6282858584683728  0.3893421867868408  0.5469921698025599  1.0000
  C   C38       1.0  0.3717141409775073  0.6106578135358433  0.45300782997123923  1.0000
  C   C39       1.0  0.5252405452447475  0.3567179921798355  0.5414504241709166  1.0000
  C   C40       1.0  0.47475945417746895  0.6432820078540245  0.45854957628118276  1.0000
  C   C41       1.0  6.366100936162312e-05  0.38135841842490453  0.4662710332387397  1.0000
  C   C42       1.0  0.9999363392042387  0.6186415818938785  0.5337289665366663  1.0000
  C   C43       1.0  0.10064719414818986  0.35023580547321287  0.42288543983413723  1.0000
  C   C44       1.0  0.8993528061694424  0.6497641938734235  0.5771145606217846  1.0000
  C   C45       1.0  0.17959789527170214  0.4198993682383341  0.41254824533811757  1.0000
  C   C46       1.0  0.8204021050459301  0.5801006311083023  0.5874517551178045  1.0000
  C   C47       1.0  0.27774434565905376  0.3995427128331989  0.35977054003872505  1.0000
  C   C48       1.0  0.7222556545545465  0.6004572874855841  0.640229459736681  1.0000
  C   C49       1.0  0.8992876696203927  0.28890520293310745  0.40918168997557314  1.0000
  C   C50       1.0  0.10071233059320765  0.7110947973856755  0.590818309799833  1.0000
  C   C51       1.0  0.8579956595396282  0.3769532630796507  0.3255132767068412  1.0000
  C   C52       1.0  0.142004340673972  0.6230467372391325  0.6744867230685647  1.0000
  C   C53       1.0  0.8533102871845188  0.34652070714207855  0.24576524274222109  1.0000
  C   C54       1.0  0.1466897131567774  0.6534792924933818  0.7542347570354007  1.0000
  C   C55       1.0  0.7726855684126421  0.2783710887859587  0.2581115677837877  1.0000
  C   C56       1.0  0.22731443113727  0.7216289105645787  0.7418884326705274  1.0000
  C   C57       1.0  0.6278664974891174  0.8362563385852089  0.9497084615564699  1.0000
  C   C58       1.0  0.3721335020844588  0.16374366105415228  0.05029153821954493  1.0000
  C   C59       1.0  0.6394884080530758  0.7398172529077672  0.9358364715483041  1.0000
  C   C60       1.0  0.36051159139280453  0.26018274741491665  0.06416352822549522  1.0000
  C   C61       1.0  0.5689211801546635  0.7526284705077093  0.8595647512781213  1.0000
  C   C62       1.0  0.4310788201866328  0.24737152912775123  0.1404352484995004  1.0000
  C   C63       1.0  0.5770704792183441  0.6590965345162761  0.8404612762894959  1.0000
  C   C64       1.0  0.4229295209952564  0.34090346580250697  0.15953872348591014  1.0000
  C   C65       1.0  0.8036528362027708  0.810509177136049  0.01570364632346419  1.0000
  C   C66       1.0  0.19634716401082952  0.18949082318273422  0.9842963534519418  1.0000
  C   C67       1.0  0.8528739290894436  0.8802371970461892  0.930298835039387  1.0000
  C   C68       1.0  0.1471260704841326  0.11976280259317204  0.06970116473662787  1.0000
  C   C69       1.0  0.9716092705113576  0.8520873342501851  0.9295467623286565  1.0000
  C   C70       1.0  0.028390729829938767  0.1479126653852753  0.07045323744896514  1.0000
  C   C71       1.0  0.007952200157806826  0.7532434133131855  0.920613139607881  1.0000
  C   C72       1.0  0.9920478000321294  0.24675658671677356  0.0793868608458252  1.0000
  C   C73       1.0  0.6568689200091722  0.938311851678727  0.02824205782276909  1.0000
  C   C74       1.0  0.34313107943670806  0.06168814864395681  0.9717579419510303  1.0000
  C   C75       1.0  0.7176838762055918  0.962172534276032  0.09085490123199579  1.0000
  C   C76       1.0  0.28231612336798423  0.03782746536332922  0.9091450985440191  1.0000
  C   C77       1.0  0.6656207455795975  0.05928918783957042  0.09800554083517135  1.0000
  C   C78       1.0  0.3343792539703146  0.9407108115109669  0.9019944596191437  1.0000
  C   C79       1.0  0.7308029136779138  0.09587107973988516  0.14877136667603705  1.0000
  C   C80       1.0  0.2691970857443024  0.9041289202939748  0.8512286337760624  1.0000
  C   C81       1.0  0.6575829599940605  0.7556530782529779  0.11727587272451506  1.0000
  C   C82       1.0  0.34241704021953995  0.24434692206580527  0.8827241270508909  1.0000
  C   C83       1.0  0.5428381108847992  0.7593884565069524  0.14378761423181438  1.0000
  C   C84       1.0  0.45716188932880114  0.24061154381183067  0.8562123855435917  1.0000
  C   C85       1.0  0.5277778225948595  0.6755133935112017  0.23639759102157099  1.0000
  C   C86       1.0  0.47222217761874086  0.32448660680758146  0.763602408753835  1.0000
  C   C87       1.0  0.5485818694197186  0.5716170312299023  0.23563632724386835  1.0000
  C   C88       1.0  0.4514181300024977  0.4283829688039576  0.7643636732082312  1.0000
  C   C89       1.0  0.8445671055631282  0.9251489132492186  0.6739059831152754  1.0000
  C   C90       1.0  0.15543289465047225  0.07485108706956466  0.32609401666013066  1.0000
  N   N1        1.0  0.917187067995718  0.3132082162880282  0.48927793344747456  1.0000
  N   N2        1.0  0.08281293221788223  0.6867917840307548  0.5107220663279315  1.0000
  N   N3        1.0  0.6867277062486367  0.835184469640319  0.02739041859940886  1.0000
  N   N4        1.0  0.31327229396496387  0.16481553067846402  0.9726095811759972  1.0000
  F   F1        1.0  0.03751309967467156  0.4585877691042442  0.09558513892169565  1.0000
  F   F2        1.0  0.9624868998752406  0.5414122302462931  0.9044148615326194  1.0000
  F   F3        1.0  0.17620522185292226  0.43389754405607756  0.9674353490282415  1.0000
  F   F4        1.0  0.8237947784883741  0.5661024555793828  0.03256465074938018  1.0000
  F   F5        1.0  0.3488422906658586  0.5276981932866242  0.9223487494855824  1.0000
  F   F6        1.0  0.6511577096754376  0.47230180634883634  0.07765125029203927  1.0000
  F   F7        1.0  0.3804013671064956  0.6500598465092705  0.0022464055728984235  1.0000
  F   F8        1.0  0.6195986323393846  0.3499401538134133  0.9977535942009009  1.0000
  F   F9        1.0  0.4166881440029562  0.12945955960261693  0.36638316078851746  1.0000
  F   F10       1.0  0.5833118562106442  0.870540440716166  0.6336168389868887  1.0000
  F   F11       1.0  0.5467483731214624  0.20229776215080422  0.4370243477783384  1.0000
  F   F12       1.0  0.4532516270684739  0.797702237879155  0.5629756526753678  1.0000
  F   F13       1.0  0.7436021379279965  0.1027506038836739  0.485607837210716  1.0000
  F   F14       1.0  0.25639786149421984  0.8972493961501862  0.5143921632413834  1.0000
  F   F15       1.0  0.8111833716343807  0.9346507442508016  0.45864091492947867  1.0000
  F   F16       1.0  0.18881662778783556  0.06534925578305825  0.5413590855226208  1.0000
  Cl  Cl1       1.0  0.9712528642687518  0.9386666639155508  0.6240704627752919  1.0000
  Cl  Cl2       1.0  0.02874713594484848  0.06133333640323251  0.3759295370001141  1.0000
  Cl  Cl3       1.0  0.8241177726435187  0.7989377653889629  0.726526006073964  1.0000
  Cl  Cl4       1.0  0.17588222754641758  0.20106223464099643  0.27347399437974207  1.0000
  Br  Br1       1.0  0.28210331981302894  0.8836557581885409  0.21927287344493848  1.0000
  Br  Br2       1.0  0.7178966803769075  0.11634424184141823  0.7807271270087677  1.0000
  Br  Br3       1.0  0.8174852081561389  0.6301210100207407  0.3266398364585097  1.0000
  Br  Br4       1.0  0.1825147920574615  0.36987899029804233  0.6733601633168964  1.0000
  I   I1        1.0  0.24903751728491264  0.7248395081305226  0.14435945046182375  1.0000
  I   I2        1.0  0.7509624829050239  0.2751604918994365  0.8556405499918824  1.0000
  I   I3        1.0  0.008960655487821977  0.6022789485222212  0.20025370744277807  1.0000
  I   I4        1.0  0.9910393439580583  0.3977210518004629  0.7997462923310211  1.0000
  I   I5        1.0  0.7137130219738582  0.8146703281461373  0.36773440996803647  1.0000
  I   I6        1.0  0.28628697747202203  0.18532967217654664  0.6322655898057629  1.0000
  I   I7        1.0  0.44228093676618796  0.9470358883452744  0.30688587053049615  1.0000
  I   I8        1.0  0.5577190626560283  0.05296411168858553  0.6931141299216033  1.0000
