data_image0
_chemical_formula_structural       H56C64N20P8Cl4
_chemical_formula_sum              "H56 C64 N20 P8 Cl4"
_cell_length_a       10.819091584671144
_cell_length_b       11.505571617807549
_cell_length_c       14.141465505057448
_cell_angle_alpha    74.09418952852543
_cell_angle_beta     87.78392674090748
_cell_angle_gamma    79.88491419351719

_space_group_name_H-M_alt    "P 1"
_space_group_IT_number       1

loop_
  _space_group_symop_operation_xyz
  'x, y, z'

loop_
  _atom_site_type_symbol
  _atom_site_label
  _atom_site_symmetry_multiplicity
  _atom_site_fract_x
  _atom_site_fract_y
  _atom_site_fract_z
  _atom_site_occupancy
  H   H1        1.0  0.28490432501811774  0.5263476744484583  0.5865112571394318  1.0000
  H   H2        1.0  0.7150956753979167  0.4736523256044283  0.41348874319141266  1.0000
  H   H3        1.0  0.1147267394780071  0.433450775524998  0.6898075088140968  1.0000
  H   H4        1.0  0.8852732609341534  0.5665492247850581  0.31019249078146965  1.0000
  H   H5        1.0  0.17579745744866934  0.2386585606411551  0.8236142312664179  1.0000
  H   H6        1.0  0.824202542967365  0.7613414394117314  0.17638576906442657  1.0000
  H   H7        1.0  0.402217865084561  0.14125556311107557  0.8467770548382642  1.0000
  H   H8        1.0  0.5977821344046013  0.8587444371938733  0.15322294475168505  1.0000
  H   H9        1.0  0.8460699538282436  0.986575153224392  0.15066107448505217  1.0000
  H   H10       1.0  0.15393004566479282  0.013424846823387345  0.849338925840175  1.0000
  H   H11       1.0  0.6459380306571884  0.044974734539373534  0.2358944954443904  1.0000
  H   H12       1.0  0.35406196883197394  0.9550252657655752  0.7641055041455589  1.0000
  H   H13       1.0  0.48072655125359826  0.2114927347743712  0.13977900362951068  1.0000
  H   H14       1.0  0.5192734491585621  0.7885072655356848  0.8602209959660558  1.0000
  H   H15       1.0  0.5232432133485683  0.3185188869594676  0.9646919583454281  1.0000
  H   H16       1.0  0.4767567870674661  0.6814811130934191  0.035308041985416386  1.0000
  H   H17       1.0  0.6385323645150754  0.8252280714020569  0.7217487595400846  1.0000
  H   H18       1.0  0.36146763497796064  0.17477192864572252  0.2782512407851427  1.0000
  H   H19       1.0  0.5396032620844254  0.9151580184045902  0.5547723556668107  1.0000
  H   H20       1.0  0.4603967385038089  0.0848419807677218  0.44522764465745945  1.0000
  H   H21       1.0  0.4974077787662196  0.7704090671950029  0.45883170583945965  1.0000
  H   H22       1.0  0.5025922216459408  0.22959093311505324  0.5411682937561069  1.0000
  H   H23       1.0  0.5561726123631019  0.5454450618697292  0.5325059076407479  1.0000
  H   H24       1.0  0.4438273871299344  0.45455493817805026  0.46749409268447933  1.0000
  H   H25       1.0  0.7202973427770448  0.667151647545067  0.8817123998089265  1.0000
  H   H26       1.0  0.2797026576389896  0.33284835250781947  0.11828760052191803  1.0000
  H   H27       1.0  0.8913519084598237  0.5870827569955356  0.009707443560691309  1.0000
  H   H28       1.0  0.10864809212453687  0.4129172424339459  0.9902925560283009  1.0000
  H   H29       1.0  0.013287994581822981  0.7375866593139148  0.04562693468043208  1.0000
  H   H30       1.0  0.9867120049073395  0.262413340991034  0.9543730649095171  1.0000
  H   H31       1.0  0.9539145417263318  0.9593251530506612  0.9607930137631875  1.0000
  H   H32       1.0  0.0460854586858284  0.04067484725939474  0.039206985832379034  1.0000
  H   H33       1.0  0.014532916588904125  0.43468182783116355  0.437358586555235  1.0000
  H   H34       1.0  0.9854670838232564  0.5653181724788924  0.5626414130403316  1.0000
  H   H35       1.0  0.19232223905079215  0.26140777900084905  0.4498235328999208  1.0000
  H   H36       1.0  0.8076777613652423  0.7385922210520376  0.5501764674309236  1.0000
  H   H37       1.0  0.19233825320297734  0.06756313599819525  0.5869260465961118  1.0000
  H   H38       1.0  0.807661746286185  0.9324368643067534  0.4130739529938375  1.0000
  H   H39       1.0  0.012637939551368861  0.056747123040801414  0.7036144478024368  1.0000
  H   H40       1.0  0.9873620608607917  0.9432528772692546  0.2963855517931298  1.0000
  H   H41       1.0  0.07842138683777612  0.6123458623069561  0.8778394009081762  1.0000
  H   H42       1.0  0.9215786135782581  0.38765413774593044  0.12216059942266817  1.0000
  H   H43       1.0  0.9405999344616145  0.7666313058934271  0.7518497699412209  1.0000
  H   H44       1.0  0.059400065031421576  0.23336869415435246  0.24815023038400622  1.0000
  H   H45       1.0  0.03093389305445799  0.8824508809437834  0.5973340238006554  1.0000
  H   H46       1.0  0.9690661073577023  0.11754911936627264  0.40266597579491126  1.0000
  H   H47       1.0  0.26208621376355545  0.8392240047609375  0.5700963100601101  1.0000
  H   H48       1.0  0.7379137857256068  0.1607759955440113  0.42990368952983915  1.0000
  H   H49       1.0  0.3990609935777088  0.6846062153489965  0.6966293678536079  1.0000
  H   H50       1.0  0.6009390059114534  0.3153937849559525  0.3033706317363414  1.0000
  H   H51       1.0  0.30511450199170176  0.5383036223302485  0.9465502633526592  1.0000
  H   H52       1.0  0.6948854975013344  0.46169637771753064  0.05344973697256804  1.0000
  H   H53       1.0  0.43144625998856184  0.553255187183299  0.862541683128561  1.0000
  H   H54       1.0  0.5685537404274724  0.4467448128695875  0.13745831720228344  1.0000
  H   H55       1.0  0.32936973795930774  0.4481661559645384  0.8618159774209372  1.0000
  H   H56       1.0  0.6706302624567265  0.5518338440883481  0.1381840229099073  1.0000
  C   C1        1.0  0.4597792426198384  0.2801177724858401  0.7231550527373983  1.0000
  C   C2        1.0  0.540220757796196  0.7198822275670466  0.27684494759344613  1.0000
  C   C3        1.0  0.30666323147918373  0.43978852182403233  0.6436622632378354  1.0000
  C   C4        1.0  0.6933367689368506  0.5602114782288542  0.3563377370930092  1.0000
  C   C5        1.0  0.21222874324501065  0.3882725498891491  0.7010458148178296  1.0000
  C   C6        1.0  0.7877712562480255  0.6117274501586302  0.29895418550739766  1.0000
  C   C7        1.0  0.24656068309622572  0.2793688296740574  0.7750123114227372  1.0000
  C   C8        1.0  0.7534393163929365  0.7206311706308917  0.22498768816721207  1.0000
  C   C9        1.0  0.37233167765764535  0.22444695637790557  0.7881474534820259  1.0000
  C   C10       1.0  0.6276683220037169  0.7755530430464685  0.21185254610134913  1.0000
  C   C11       1.0  0.7103892620217799  0.21164711541882406  0.9703057136802945  1.0000
  C   C12       1.0  0.28961073839425455  0.7883528846340624  0.029694286650549937  1.0000
  C   C13       1.0  0.7727579228388197  0.061323907209902294  0.11298200645171858  1.0000
  C   C14       1.0  0.22724207757334058  0.9386760931001538  0.887017993143848  1.0000
  C   C15       1.0  0.6616750606340751  0.09321866545456464  0.15990036293164042  1.0000
  C   C16       1.0  0.33832493885508713  0.9067813348503841  0.8400996366583089  1.0000
  C   C17       1.0  0.5702933692873036  0.18714878615999128  0.10649217314163831  1.0000
  C   C18       1.0  0.4297066311248567  0.8128512141500649  0.8935078264539282  1.0000
  C   C19       1.0  0.5934336235551432  0.24717574875415413  0.009575949043069992  1.0000
  C   C20       1.0  0.40656637686089114  0.7528242512987326  0.9904240512877746  1.0000
  C   C21       1.0  0.6288293183871692  0.5687490701949944  0.6657608766822782  1.0000
  C   C22       1.0  0.37117068220106536  0.4312509289773174  0.334239123641992  1.0000
  C   C23       1.0  0.6175269964702564  0.7666851808305115  0.6775740525223213  1.0000
  C   C24       1.0  0.38247300302277987  0.2333148192172679  0.3224259478029059  1.0000
  C   C25       1.0  0.5629964253141542  0.8161208865535512  0.5844577665360238  1.0000
  C   C26       1.0  0.4370035751018802  0.1838791134993355  0.4155422337948207  1.0000
  C   C27       1.0  0.5413308412487067  0.7355801207384683  0.531276321902401  1.0000
  C   C28       1.0  0.4586691582443296  0.264419879309311  0.4687236784228262  1.0000
  C   C29       1.0  0.5738340755510405  0.6098498540194026  0.5717414067044525  1.0000
  C   C30       1.0  0.4261659248649939  0.3901501460334839  0.42825859362639196  1.0000
  C   C31       1.0  0.803058597112929  0.9290057871994716  0.8786020127985728  1.0000
  C   C32       1.0  0.19694140254843323  0.07099421222490265  0.12139798678480222  1.0000
  C   C33       1.0  0.7721762265317073  0.7291830703317425  0.9035286171515298  1.0000
  C   C34       1.0  0.22782377388432706  0.27081692972114413  0.09647138317931475  1.0000
  C   C35       1.0  0.8681939562012788  0.6848218254801169  0.9733826381979652  1.0000
  C   C36       1.0  0.1318060434639575  0.3151781736870878  0.026617362120687785  1.0000
  C   C37       1.0  0.9355820015862821  0.7686480151577624  0.9931778547736054  1.0000
  C   C38       1.0  0.06441799790675413  0.2313519848900168  0.00682214555162184  1.0000
  C   C39       1.0  0.9034228826711681  0.8926009593783242  0.9458872706558507  1.0000
  C   C40       1.0  0.09657711774486626  0.10739904067456232  0.05411272967499381  1.0000
  C   C41       1.0  0.9258681564199511  0.24540159256009564  0.6354059503428076  1.0000
  C   C42       1.0  0.0741318439960831  0.7545984074927908  0.3645940499880368  1.0000
  C   C43       1.0  0.018083778654563277  0.35041247931969444  0.49684916351687464  1.0000
  C   C44       1.0  0.9819162217614711  0.649587520733192  0.5031508368139699  1.0000
  C   C45       1.0  0.11784621528047419  0.25366899903013174  0.5038727467754233  1.0000
  C   C46       1.0  0.8821537851355601  0.7463310010227547  0.4961272535554212  1.0000
  C   C47       1.0  0.118025058666544  0.14694339179437524  0.580268835757144  1.0000
  C   C48       1.0  0.8819749409986922  0.8530566073728295  0.4197311645615089  1.0000
  C   C49       1.0  0.01921900286432542  0.14103329191946257  0.6465207984806561  1.0000
  C   C50       1.0  0.980780997551709  0.8589667081334239  0.3534792018501884  1.0000
  C   C51       1.0  0.11962764885120909  0.6623066762877771  0.8107113455137246  1.0000
  C   C52       1.0  0.8803723506379532  0.3376933240171717  0.18928865407622472  1.0000
  C   C53       1.0  0.04148675793324011  0.7500114989046486  0.7398044499389843  1.0000
  C   C54       1.0  0.9585132415597962  0.2499885011431309  0.2601955503862429  1.0000
  C   C55       1.0  0.09201133045140188  0.8148552694998012  0.6530460558393357  1.0000
  C   C56       1.0  0.9079886690377605  0.1851447308051476  0.34695394375061356  1.0000
  C   C57       1.0  0.22120755510338613  0.7908279570483902  0.6380367629874049  1.0000
  C   C58       1.0  0.7787924453126482  0.2091720430044964  0.36196323734343955  1.0000
  C   C59       1.0  0.2986118020724167  0.7030691723416055  0.7092620559955123  1.0000
  C   C60       1.0  0.7013881975928196  0.2969308268255993  0.2907379443231407  1.0000
  C   C61       1.0  0.24936976636488278  0.6371825239455595  0.7965492892785395  1.0000
  C   C62       1.0  0.7506302333003534  0.36281747522164537  0.2034507110401133  1.0000
  C   C63       1.0  0.33331843184691207  0.5394853437716698  0.8708849147538262  1.0000
  C   C64       1.0  0.6666815676461241  0.46051465627610966  0.12911508557140092  1.0000
  N   N1        1.0  0.5893582833131943  0.2297675228201322  0.7262257398080761  1.0000
  N   N2        1.0  0.41064171710284  0.7702324772327543  0.2737742605227683  1.0000
  N   N3        1.0  0.4278432796190879  0.386535737967503  0.6541237765791856  1.0000
  N   N4        1.0  0.5721567198700743  0.6134642623374458  0.34587622301076365  1.0000
  N   N5        1.0  0.7430312205503976  0.26712296832745225  0.8722611909153136  1.0000
  N   N6        1.0  0.25696877894263875  0.7328770317203271  0.1277388094099135  1.0000
  N   N7        1.0  0.797111135421652  0.11968942194385426  0.02011511881069349  1.0000
  N   N8        1.0  0.20288886516658236  0.8803105772284577  0.9798848815135767  1.0000
  N   N9        1.0  0.6659819715198511  0.4442484434812635  0.7159510190986839  1.0000
  N   N10       1.0  0.3340180279731851  0.555751556566516  0.2840489812265433  1.0000
  N   N11       1.0  0.6503146048699863  0.6454059158574591  0.7173010180590097  1.0000
  N   N12       1.0  0.34968539554217404  0.354594084452597  0.2826989815365568  1.0000
  N   N13       1.0  0.7585880300679883  0.05289617247770613  0.8285121001538341  1.0000
  N   N14       1.0  0.24141197034804607  0.9471038275751805  0.17148790017701032  1.0000
  N   N15       1.0  0.7406947725326424  0.8488643890328456  0.85647104739497  1.0000
  N   N16       1.0  0.2593052269603939  0.1511356110149337  0.14352895293025714  1.0000
  N   N17       1.0  0.8241583417776521  0.2472281601289472  0.7018082335520215  1.0000
  N   N18       1.0  0.17584165863450826  0.7527718401811089  0.298191766043545  1.0000
  N   N19       1.0  0.9244257574855657  0.34806088046614064  0.5621408261728341  1.0000
  N   N20       1.0  0.07557424292659472  0.6519391198439154  0.4378591734227324  1.0000
  P   P1        1.0  0.6257672213744256  0.07286449217987714  0.7582571766848529  1.0000
  P   P2        1.0  0.3742327790377347  0.9271355081301789  0.2417428229107137  1.0000
  P   P3        1.0  0.7142110551317559  0.4242642721661849  0.835216960011504  1.0000
  P   P4        1.0  0.28578894528040455  0.5757357281438712  0.16478303958406249  1.0000
  P   P5        1.0  0.6822819161244666  0.3331403100049413  0.6514893190183617  1.0000
  P   P6        1.0  0.3177180842915677  0.6668596900479452  0.3485106813124828  1.0000
  P   P7        1.0  0.8505363028499597  0.16585405930970806  0.8224482449110413  1.0000
  P   P8        1.0  0.1494636966430765  0.8341459407380712  0.1775517554141859  1.0000
  Cl  Cl1       1.0  0.7129731883078222  0.04529947785800534  0.6236997809582694  1.0000
  Cl  Cl2       1.0  0.28702681118133994  0.9547005224469436  0.37630021863168  1.0000
  Cl  Cl3       1.0  0.9029374922726713  0.4608550615640724  0.8106673436581445  1.0000
  Cl  Cl4       1.0  0.09706250721649111  0.5391449387408764  0.1893326559318048  1.0000
