data_image0
_chemical_formula_structural       H24C32O8F12P2S16
_chemical_formula_sum              "H24 C32 O8 F12 P2 S16"
_cell_length_a       9.659334903463124
_cell_length_b       10.852985312686899
_cell_length_c       11.455743373560246
_cell_angle_alpha    101.74049006865157
_cell_angle_beta     100.36213568077926
_cell_angle_gamma    89.58218549103425

_space_group_name_H-M_alt    "P 1"
_space_group_IT_number       1

loop_
  _space_group_symop_operation_xyz
  'x, y, z'

loop_
  _atom_site_type_symbol
  _atom_site_label
  _atom_site_symmetry_multiplicity
  _atom_site_fract_x
  _atom_site_fract_y
  _atom_site_fract_z
  _atom_site_occupancy
  H   H1        1.0  0.5326787158537409  0.09938827189027188  0.14270335298079811  1.0000
  H   H2        1.0  0.4673212837567939  0.9006117280382168  0.8572966474503924  1.0000
  H   H3        1.0  0.701435050467477  0.2603159015652948  0.3017051381354643  1.0000
  H   H4        1.0  0.298564949999577  0.7396840990828965  0.6982948613962502  1.0000
  H   H5        1.0  0.2424442541021165  0.005752327307933143  0.8962280342337308  1.0000
  H   H6        1.0  0.7575557463649375  0.9942476733402581  0.10377196529798362  1.0000
  H   H7        1.0  0.1534551596551162  0.13774748418661217  0.9674884883440954  1.0000
  H   H8        1.0  0.8465448409944342  0.8622525166561131  0.03251151209433677  1.0000
  H   H9        1.0  0.9863046499319653  0.13279206091483683  0.7732070311462367  1.0000
  H   H10       1.0  0.01369534949607311  0.8672079388191177  0.22679296837823595  1.0000
  H   H11       1.0  0.9847164913174509  0.9817333811776736  0.8128059463658954  1.0000
  H   H12       1.0  0.015283509149603082  0.018266619470517578  0.18719405316581886  1.0000
  H   H13       1.0  0.03176891406204281  0.47339411363968226  0.8541136305806197  1.0000
  H   H14       1.0  0.9682310853659954  0.5266058860942725  0.14588636894385298  1.0000
  H   H15       1.0  0.8388265534261259  0.312087698595613  0.7236218139876993  1.0000
  H   H16       1.0  0.16117344600191266  0.6879123011383417  0.2763781855367734  1.0000
  H   H17       1.0  0.5040648857434147  0.3572413642758553  0.16220042265404863  1.0000
  H   H18       1.0  0.49593511368462395  0.6427586354580993  0.8377995768704242  1.0000
  H   H19       1.0  0.4968425669127224  0.5121804329387325  0.1297839524280867  1.0000
  H   H20       1.0  0.5031574335543316  0.4878195677094586  0.8702160471036275  1.0000
  H   H21       1.0  0.2344610474603188  0.49199038264591666  0.07747962687441513  1.0000
  H   H22       1.0  0.765538952150216  0.508009617282572  0.9225203735567753  1.0000
  H   H23       1.0  0.30988478785741563  0.3628579139638558  0.9874410089635041  1.0000
  H   H24       1.0  0.6901152117531192  0.6371420859646328  0.012558991467686355  1.0000
  C   C1        1.0  0.3619251874023677  0.12770622926047892  0.5262559023276316  1.0000
  C   C2        1.0  0.6380748120277043  0.8722937713946632  0.4737440971959007  1.0000
  C   C3        1.0  0.43658207775515084  0.14055288083130563  0.437144280422682  1.0000
  C   C4        1.0  0.563417921855384  0.859447119097183  0.5628557200085084  1.0000
  C   C5        1.0  0.1923128667204746  0.05249721885485115  0.6449958567515517  1.0000
  C   C6        1.0  0.8076871327075638  0.9475027808791034  0.355004142772921  1.0000
  C   C7        1.0  0.5251039933673366  0.1270590799589679  0.23810743221318303  1.0000
  C   C8        1.0  0.4748960062431982  0.8729409199695208  0.7618925682180073  1.0000
  C   C9        1.0  0.2788479121087456  0.14048435781615998  0.7266092421769134  1.0000
  C   C10       1.0  0.7211520885387713  0.8595156421053777  0.2733907582624593  1.0000
  C   C11       1.0  0.6131881696541834  0.21110481381685942  0.32086922084820013  1.0000
  C   C12       1.0  0.3868118297738551  0.7888951859170951  0.6791307786762726  1.0000
  C   C13       1.0  0.18043533845430934  0.08800083673337061  0.8818972292490398  1.0000
  C   C14       1.0  0.819564660973729  0.9119991630005839  0.11810277027543288  1.0000
  C   C15       1.0  0.049068827215009755  0.05064718567940626  0.7870464104427156  1.0000
  C   C16       1.0  0.9509311732500108  0.9493528140475974  0.21295358908993944  1.0000
  C   C17       1.0  0.16676198479680152  0.3688664185747866  0.45388635548705636  1.0000
  C   C18       1.0  0.8332380146312368  0.6311335811591681  0.5461136440374164  1.0000
  C   C19       1.0  0.10017756806026107  0.370288669435365  0.5504324315758501  1.0000
  C   C20       1.0  0.8998224313677774  0.6297113302985896  0.4495675679486227  1.0000
  C   C21       1.0  0.32286456340174696  0.4357189832260892  0.3192712867214456  1.0000
  C   C22       1.0  0.6771354362087879  0.5642810167023995  0.6807287137097449  1.0000
  C   C23       1.0  0.028937310543126937  0.42770448790620613  0.759856203477363  1.0000
  C   C24       1.0  0.9710626901043898  0.5722955120153316  0.24014379696200955  1.0000
  C   C25       1.0  0.2276988967647165  0.3503007467593783  0.24422622372642366  1.0000
  C   C26       1.0  0.7723011038828004  0.6496992531621593  0.7557737767129488  1.0000
  C   C27       1.0  0.9285318386983061  0.34495465229479955  0.691553374418634  1.0000
  C   C28       1.0  0.0714681619492107  0.6550453476267382  0.3084466260207386  1.0000
  C   C29       1.0  0.44046578537392367  0.44110866894967277  0.16015010474136226  1.0000
  C   C30       1.0  0.5595342140561482  0.5588913317054695  0.83984989478217  1.0000
  C   C31       1.0  0.2980521487133726  0.40814124685420294  0.07944628606308923  1.0000
  C   C32       1.0  0.7019478519341442  0.5918587530673348  0.9205537143762832  1.0000
  O   O1        1.0  0.08498945571778355  0.9895476154700925  0.6711701253900777  1.0000
  O   O2        1.0  0.9150105438927513  0.010452384458396195  0.3288298750411127  1.0000
  O   O3        1.0  0.27007515220765654  0.17602255609817427  0.845552363136682  1.0000
  O   O4        1.0  0.7299248484398604  0.8239774438233635  0.1544476373026906  1.0000
  O   O5        1.0  0.4248941768375799  0.4973605330891765  0.28362443167175155  1.0000
  O   O6        1.0  0.5751058227729549  0.5026394668393123  0.7163755687594389  1.0000
  O   O7        1.0  0.2209509002414767  0.3162838020562234  0.12234407959520359  1.0000
  O   O8        1.0  0.7790491004080737  0.6837161987865019  0.8776559208432286  1.0000
  F   F1        1.0  0.6398384425764464  0.11987837491373562  0.9658356715772105  1.0000
  F   F2        1.0  0.3601615570340884  0.880121625014753  0.034164328853979915  1.0000
  F   F3        1.0  0.8809094485638145  0.34225571907318025  0.9947084837794149  1.0000
  F   F4        1.0  0.11909055190120603  0.6577442806538233  0.005291515753240163  1.0000
  F   F5        1.0  0.7443673234361654  0.20754054027680596  0.8326830756807027  1.0000
  F   F6        1.0  0.25563267702885506  0.7924594594501976  0.16731692385195232  1.0000
  F   F7        1.0  0.7769496370527993  0.25519517526688656  0.12816705432588976  1.0000
  F   F8        1.0  0.22305036359471758  0.7448048246546513  0.8718329461134827  1.0000
  F   F9        1.0  0.8832117115414188  0.126350350976332  0.9849902623440087  1.0000
  F   F10       1.0  0.11678828788865316  0.8736496496788101  0.01500973717952344  1.0000
  F   F11       1.0  0.6371737971082099  0.3352182778637646  0.9763795163733432  1.0000
  F   F12       1.0  0.36282620231982854  0.66478172187019  0.023620483151129513  1.0000
  P   P1        1.0  0.760760616607353  0.2309513937488486  0.9804083843325218  1.0000
  P   P2        1.0  0.23923938300318193  0.7690486061796402  0.0195916160986687  1.0000
  S   S1        1.0  0.21671992353115316  0.025202771344902217  0.49513304835668626  1.0000
  S   S2        1.0  0.7832800769338674  0.9747972283821014  0.5048669511759687  1.0000
  S   S3        1.0  0.39182961848157427  0.05888035281325085  0.2876415245871588  1.0000
  S   S4        1.0  0.6081703811289607  0.9411196471152378  0.7123584758440317  1.0000
  S   S5        1.0  0.4116231994037346  0.20958324502049072  0.6751126870031757  1.0000
  S   S6        1.0  0.5883768002068003  0.7904167549079979  0.3248873134280147  1.0000
  S   S7        1.0  0.5843468092494126  0.23982494998985318  0.46798382105749364  1.0000
  S   S8        1.0  0.41565319140013773  0.7601750508528722  0.5320161793809384  1.0000
  S   S9        1.0  0.31721873618481145  0.464487943004153  0.47340862411584883  1.0000
  S   S10       1.0  0.6827812644627055  0.5355120569173848  0.5265913763235238  1.0000
  S   S11       1.0  0.16497225506757987  0.46524926743109857  0.6922823562330034  1.0000
  S   S12       1.0  0.8350277455819706  0.5347507334116267  0.30771764420542874  1.0000
  S   S13       1.0  0.10613737835216229  0.280575395851002  0.30850501687271803  1.0000
  S   S14       1.0  0.8938626221128583  0.7194246038760017  0.6914949826599369  1.0000
  S   S15       1.0  0.9460260541844957  0.2840629505090586  0.542861538554525  1.0000
  S   S16       1.0  0.05397394628052493  0.715937049217945  0.4571384609781299  1.0000
