data_image0
_chemical_formula_structural       H144C88N4F20Br4I4
_chemical_formula_sum              "H144 C88 N4 F20 Br4 I4"
_cell_length_a       23.92187542919941
_cell_length_b       7.650564571899096
_cell_length_c       13.961504461999164
_cell_angle_alpha    90.0
_cell_angle_beta     95.6633017728309
_cell_angle_gamma    90.0

_space_group_name_H-M_alt    "P 1"
_space_group_IT_number       1

loop_
  _space_group_symop_operation_xyz
  'x, y, z'

loop_
  _atom_site_type_symbol
  _atom_site_label
  _atom_site_symmetry_multiplicity
  _atom_site_fract_x
  _atom_site_fract_y
  _atom_site_fract_z
  _atom_site_occupancy
  H   H1        1.0  0.7782805741792055  0.14979537512948857  0.7825524173121395  1.0000
  H   H2        1.0  0.22171942591825292  0.6497953743518273  0.7174475830107848  1.0000
  H   H3        1.0  0.22171942571312733  0.850204624622282  0.21744758284072177  1.0000
  H   H4        1.0  0.7782805743919969  0.35020462539994324  0.2825524171401851  1.0000
  H   H5        1.0  0.8425997876288552  0.14179769869332826  0.7319725602950904  1.0000
  H   H6        1.0  0.15740021246860314  0.641797697915667  0.7680274400278341  1.0000
  H   H7        1.0  0.15740021226347756  0.8582023010584422  0.268027439857771  1.0000
  H   H8        1.0  0.8425997878416467  0.3582023018361035  0.23197256012313583  1.0000
  H   H9        1.0  0.7956193549383164  0.27212481646739556  0.5765286860538081  1.0000
  H   H10       1.0  0.20438064511658943  0.7721248156897342  0.9234713135493504  1.0000
  H   H11       1.0  0.2043806453719335  0.727875184591468  0.42347131409716177  1.0000
  H   H12       1.0  0.7956193547331907  0.22787518406203625  0.07652868588374506  1.0000
  H   H13       1.0  0.7311244982021027  0.2715294211920284  0.6264564616483349  1.0000
  H   H14       1.0  0.2688755018953558  0.7715294217214601  0.8735435386745894  1.0000
  H   H15       1.0  0.2688755016902302  0.7284705785597422  0.3735435385045264  1.0000
  H   H16       1.0  0.7311244984148939  0.22847057803031032  0.12645646147638043  1.0000
  H   H17       1.0  0.837162497803554  0.5180654385374521  0.9003037737391405  1.0000
  H   H18       1.0  0.16283750225135174  0.01806543800802037  0.5996962258640179  1.0000
  H   H19       1.0  0.1628375020887788  0.4819345612143184  0.09969622641372085  1.0000
  H   H20       1.0  0.8371624975984284  0.9819345617437502  0.40030377356907737  1.0000
  H   H21       1.0  0.8091366033329924  0.302708389457476  0.9069760279317421  1.0000
  H   H22       1.0  0.19086339676446595  0.8027083886798148  0.5930239723911824  1.0000
  H   H23       1.0  0.19086339655934034  0.6972916102942945  0.0930239722211193  1.0000
  H   H24       1.0  0.8091366031278668  0.19729161107195572  0.40697602776167896  1.0000
  H   H25       1.0  0.7276962541589441  0.3995434377781127  0.8806060778245864  1.0000
  H   H26       1.0  0.2723037454780446  0.8995434370004515  0.6193939217804633  1.0000
  H   H27       1.0  0.27230374573338867  0.6004565619736578  0.11939392232827477  1.0000
  H   H28       1.0  0.7276962543717356  0.10045656275131908  0.38060607765263205  1.0000
  H   H29       1.0  0.6972485965375227  0.31837168056152776  0.7693378604424574  1.0000
  H   H30       1.0  0.3027514031420186  0.8183716810909596  0.7306621398823584  1.0000
  H   H31       1.0  0.3027514033548101  0.6816283191902427  0.23066213971040386  1.0000
  H   H32       1.0  0.6972485967503141  0.181628318660811  0.26933786027050294  1.0000
  H   H33       1.0  0.8938735675477256  0.38168617133508376  0.7083437140628167  1.0000
  H   H34       1.0  0.10612643254973275  0.8816861718645155  0.7916562862601076  1.0000
  H   H35       1.0  0.10612643276252422  0.6183138284166868  0.2916562860881532  1.0000
  H   H36       1.0  0.8938735673426002  0.11831382919434803  0.2083437138927536  1.0000
  H   H37       1.0  0.8394245581798511  0.48453078529861093  0.632674463938173  1.0000
  H   H38       1.0  0.1605754419176074  0.9845307845209497  0.8673255363847514  1.0000
  H   H39       1.0  0.16057544213039884  0.5154692157602527  0.36732553621279695  1.0000
  H   H40       1.0  0.8394245579747256  0.015469215230820864  0.1326744637681099  1.0000
  H   H41       1.0  0.8954977385148867  0.6568269220885254  0.8168536494023058  1.0000
  H   H42       1.0  0.10450226158257181  0.15682692286618669  0.6831463509206186  1.0000
  H   H43       1.0  0.10450226179536326  0.3431730776632451  0.18314635074866417  1.0000
  H   H44       1.0  0.8954977383097611  0.8431730768855838  0.3168536492322427  1.0000
  H   H45       1.0  0.846248958438514  0.7515233661471843  0.7307667264694004  1.0000
  H   H46       1.0  0.15375104161639175  0.2515233669248455  0.769233273133758  1.0000
  H   H47       1.0  0.15375104182918323  0.24847663360458627  0.2692332729618035  1.0000
  H   H48       1.0  0.8462489582759412  0.748476634134018  0.23076672701910333  1.0000
  H   H49       1.0  0.9283497082180875  0.3788402480315967  0.8545561398416366  1.0000
  H   H50       1.0  0.07165029141890125  0.8788402485610285  0.6454438597634132  1.0000
  H   H51       1.0  0.0716502916316927  0.6211597517201738  0.14544385959145878  1.0000
  H   H52       1.0  0.9283497084734317  0.12115975249783507  0.35455614038944805  1.0000
  H   H53       1.0  0.8978794394719951  0.16922842070446298  0.870892260860814  1.0000
  H   H54       1.0  0.10212056058291055  0.6692284212338948  0.6291077387423446  1.0000
  H   H55       1.0  0.10212056037778494  0.8307715790473076  0.1291077385722815  1.0000
  H   H56       1.0  0.8978794393094223  0.3307715785178757  0.3708922614105168  1.0000
  H   H57       1.0  0.777137597710088  0.6338663917447634  0.7924770416096107  1.0000
  H   H58       1.0  0.2228624019694534  0.13386639252242466  0.707522958715205  1.0000
  H   H59       1.0  0.22286240218224485  0.3661336080070071  0.20752295854325062  1.0000
  H   H60       1.0  0.7771375979228794  0.866133607229346  0.2924770414376562  1.0000
  H   H61       1.0  0.7532267443286267  0.5325926657708812  0.6810680627939161  1.0000
  H   H62       1.0  0.24677325572627914  0.032592665241449416  0.8189319368092424  1.0000
  H   H63       1.0  0.24677325552115356  0.4674073339808893  0.31893193663917935  1.0000
  H   H64       1.0  0.7532267441660538  0.9674073345103211  0.1810680633436189  1.0000
  H   H65       1.0  0.7462073204985789  0.013088171344607618  0.5199594467116595  1.0000
  H   H66       1.0  0.2537926795988795  0.5130881718740394  0.9800405536112649  1.0000
  H   H67       1.0  0.25379267939375394  0.986911828407163  0.48004055344120183  1.0000
  H   H68       1.0  0.7462073207113703  0.48691182787773113  0.019959446539705068  1.0000
  H   H69       1.0  0.8007814201140699  0.9400484385709534  0.602228463939291  1.0000
  H   H70       1.0  0.1992185799408359  0.44004843804152166  0.8977715356638674  1.0000
  H   H71       1.0  0.19921858015362737  0.05995156118081704  0.39777153549191296  1.0000
  H   H72       1.0  0.800781419951497  0.5599515617102488  0.10222846448899388  1.0000
  H   H73       1.0  0.7093641525048597  0.7895382495282425  0.6241821040498211  1.0000
  H   H74       1.0  0.29063584717468166  0.2895382489988107  0.8758178962749946  1.0000
  H   H75       1.0  0.2906358473874731  0.2104617515306211  0.37581789610304006  1.0000
  H   H76       1.0  0.7093641527176511  0.7104617507529598  0.12418210387786671  1.0000
  H   H77       1.0  0.6782993393860599  0.9932677135896246  0.6481671558869512  1.0000
  H   H78       1.0  0.3217006607113986  0.4932677143672859  0.8518328444359732  1.0000
  H   H79       1.0  0.32170066050627294  0.006732286162145907  0.3518328442659102  1.0000
  H   H80       1.0  0.6782993395988514  0.5067322853844846  0.14816715571499664  1.0000
  H   H81       1.0  0.7330208844952695  0.908633269436535  0.7297399999720258  1.0000
  H   H82       1.0  0.2669791151842719  0.4086332689071032  0.7702600003527901  1.0000
  H   H83       1.0  0.26697911539706337  0.0913667316223286  0.27026000018083557  1.0000
  H   H84       1.0  0.7330208847080609  0.5913667308446673  0.22973999980007126  1.0000
  H   H85       1.0  0.9629616371426154  0.6206279216883164  0.691512755647893  1.0000
  H   H86       1.0  0.037038362954843064  0.12062792115888461  0.8084872446750314  1.0000
  H   H87       1.0  0.03703836274971746  0.37937207806345413  0.3084872445049683  1.0000
  H   H88       1.0  0.9629616373554067  0.8793720785928859  0.1915127554759386  1.0000
  H   H89       1.0  0.9128227955738571  0.7098180413961251  0.6038954228388352  1.0000
  H   H90       1.0  0.08717720452360132  0.20981804217378633  0.8961045774840892  1.0000
  H   H91       1.0  0.08717720473639277  0.2901819583556455  0.39610457731213466  1.0000
  H   H92       1.0  0.9128227953687315  0.7901819575779843  0.10389542266877215  1.0000
  H   H93       1.0  0.6872051548939158  0.6981754627128254  0.8360107751785589  1.0000
  H   H94       1.0  0.3127948452035427  0.19817546349048668  0.6639892251443654  1.0000
  H   H95       1.0  0.31279484499841714  0.30182453703894513  0.16398922497430235  1.0000
  H   H96       1.0  0.6872051546887901  0.8018245362612839  0.3360107750084959  1.0000
  H   H97       1.0  0.65048360241468  0.6048948514202589  0.7328296856329994  1.0000
  H   H98       1.0  0.3495163976827785  0.10489485219792016  0.7671703146899249  1.0000
  H   H99       1.0  0.34951639747765284  0.3951051483315116  0.2671703145198618  1.0000
  H   H100      1.0  0.6504836026274715  0.8951051488609434  0.23282968546104502  1.0000
  H   H101      1.0  0.9832524223163098  0.9382741917330328  0.6705902716668305  1.0000
  H   H102      1.0  0.01674757773859595  0.43827419120360095  0.829409727936328  1.0000
  H   H103      1.0  0.016747577951387416  0.06172580801873773  0.3294097277643735  1.0000
  H   H104      1.0  0.983252422153737  0.5617258085481696  0.17059027221653336  1.0000
  H   H105      1.0  0.9616046450134788  0.904488492969126  0.7874681515803564  1.0000
  H   H106      1.0  0.038395354623510056  0.40448849243969426  0.7125318480246933  1.0000
  H   H107      1.0  0.038395354836301514  0.09551150678264447  0.21253184785273888  1.0000
  H   H108      1.0  0.9616046452688227  0.5955115073120762  0.28746815212816795  1.0000
  H   H109      1.0  0.9141164394305662  0.9930402179605579  0.6948162226958887  1.0000
  H   H110      1.0  0.0858835606243396  0.493040217431126  0.8051837769072698  1.0000
  H   H111      1.0  0.08588356083713107  0.0069597830983057375  0.30518377673531527  1.0000
  H   H112      1.0  0.9141164392679934  0.5069597823206444  0.19481622324559156  1.0000
  H   H113      1.0  0.9129156375772625  0.4569388098285444  0.023768018906402972  1.0000
  H   H114      1.0  0.08708436252786177  0.9569388103579761  0.4762319810745039  1.0000
  H   H115      1.0  0.08708436273298735  0.5430611899232262  0.9762319812445669  1.0000
  H   H116      1.0  0.912915637364471  0.04306118939379433  0.5237680190783575  1.0000
  H   H117      1.0  0.8833014017922569  0.24814044142218875  0.03891224628243748  1.0000
  H   H118      1.0  0.11669859831286734  0.7481404419516205  0.4610877536984694  1.0000
  H   H119      1.0  0.11669859851799293  0.7518595583295817  0.9610877538685325  1.0000
  H   H120      1.0  0.8833014015794655  0.25185955780015  0.538912246454392  1.0000
  H   H121      1.0  0.6013469558449219  0.39939040985592505  0.8391226436640189  1.0000
  H   H122      1.0  0.3986530442525366  0.8993904090782638  0.6608773566589055  1.0000
  H   H123      1.0  0.39865304446532807  0.6006095898958455  0.1608773564869511  1.0000
  H   H124      1.0  0.6013469556397962  0.1006095906735067  0.3391226434939557  1.0000
  H   H125      1.0  0.5900023207223797  0.6207144551714049  0.869332898835129  1.0000
  H   H126      1.0  0.4099976793750787  0.12071445464197314  0.6306671014877954  1.0000
  H   H127      1.0  0.40999767916995317  0.3792855445803656  0.13066710131773238  1.0000
  H   H128      1.0  0.5900023209351711  0.8792855451097974  0.3693328986631744  1.0000
  H   H129      1.0  0.6394055927751282  0.4934425472162122  0.9422922482130776  1.0000
  H   H130      1.0  0.36059440732233017  0.9934425464385509  0.5577077521098468  1.0000
  H   H131      1.0  0.36059440711720464  0.5065574525355583  0.0577077519397837  1.0000
  H   H132      1.0  0.6394055925700026  0.006557453313219571  0.4422922480430146  1.0000
  H   H133      1.0  0.005312985558147687  0.3103373401645102  0.993354656746136  1.0000
  H   H134      1.0  0.9946870144967582  0.810337340693942  0.5066453428570226  1.0000
  H   H135      1.0  0.9946870147521022  0.6896626595872604  0.006645343404833893  1.0000
  H   H136      1.0  0.005312985353022093  0.18966265905782853  0.4933546565760729  1.0000
  H   H137      1.0  0.9738733725170617  0.10395868076472851  0.01079811917321901  1.0000
  H   H138      1.0  0.026126627588062633  0.6039586799870673  0.48920188080768784  1.0000
  H   H139      1.0  0.02612662779318822  0.896041318987042  0.9892018809777509  1.0000
  H   H140      1.0  0.9738733723042702  0.39604131976470325  0.5107981193451735  1.0000
  H   H141      1.0  0.9840839420080344  0.2545153696437139  0.10767772505154083  1.0000
  H   H142      1.0  0.015916057679172733  0.7545153688660526  0.39232227493125743  1.0000
  H   H143      1.0  0.01591605788429832  0.7454846314151496  0.8923222751013205  1.0000
  H   H144      1.0  0.9840839422131601  0.24548463088571792  0.6076777252216039  1.0000
  C   C1        1.0  0.3989077196076463  0.5891032351461137  0.545458676590966  1.0000
  C   C2        1.0  0.6010922804472595  0.08910323592377502  0.9545413230121926  1.0000
  C   C3        1.0  0.6010922802421339  0.4108967646056568  0.45454132284212945  1.0000
  C   C4        1.0  0.3989077198629904  0.9108967638279954  0.04545867713877741  1.0000
  C   C5        1.0  0.41640299147953946  0.6883705196533906  0.47007412053290865  1.0000
  C   C6        1.0  0.5835970086255848  0.18837051912395877  0.029925879447998172  1.0000
  C   C7        1.0  0.5835970083702408  0.31162948009837993  0.5299258789001867  1.0000
  C   C8        1.0  0.416402991266748  0.8116294806278117  0.9700741207048631  1.0000
  C   C9        1.0  0.4376025701753324  0.5568336806995303  0.6250063288999348  1.0000
  C   C10       1.0  0.5623974298795734  0.05683368017009853  0.8749936707032238  1.0000
  C   C11       1.0  0.5623974296744478  0.4431663190522402  0.3749936705331607  1.0000
  C   C12       1.0  0.4376025700127595  0.943166319581672  0.12500632944963755  1.0000
  C   C13       1.0  0.5087987029420851  0.7234975651772074  0.5539679338213749  1.0000
  C   C14       1.0  0.49120129715537336  0.22349756464777562  0.9460320665015495  1.0000
  C   C15       1.0  0.4912012969502478  0.2765024345745631  0.4460320663314864  1.0000
  C   C16       1.0  0.5087987027369594  0.7765024351039949  0.05396793365131185  1.0000
  C   C17       1.0  0.4706791278588868  0.7562209109704782  0.4737362422159828  1.0000
  C   C18       1.0  0.5293208722462375  0.25622091044104633  0.026263757764924043  1.0000
  C   C19       1.0  0.5293208719908934  0.2437790900883855  0.5262637572171126  1.0000
  C   C20       1.0  0.47067912806401246  0.7437790893107241  0.9737362423860458  1.0000
  C   C21       1.0  0.49221373297355836  0.622552160071203  0.6294873615588193  1.0000
  C   C22       1.0  0.5077862670813474  0.12255215954177114  0.8705126380443393  1.0000
  C   C23       1.0  0.5077862668762219  0.37744783968056755  0.37051263787427624  1.0000
  C   C24       1.0  0.4922137328109854  0.8774478402099993  0.1294873621085221  1.0000
  C   C25       1.0  0.8023953100082869  0.21178200050114807  0.7290002311619804  1.0000
  C   C26       1.0  0.1976046900466188  0.7117820010305799  0.7709997684411781  1.0000
  C   C27       1.0  0.19760468988404584  0.7882179992506224  0.27099976899088085  1.0000
  C   C28       1.0  0.8023953098031614  0.28821800002828374  0.22900023099191744  1.0000
  C   C29       1.0  0.7717296136295185  0.20379784724997993  0.6284961928875447  1.0000
  C   C30       1.0  0.22827038646794  0.7037978464723187  0.8715038074353797  1.0000
  C   C31       1.0  0.2282703862628144  0.7962021538088836  0.3715038072653166  1.0000
  C   C32       1.0  0.7717296134243927  0.2962021532794519  0.1284961927174816  1.0000
  C   C33       1.0  0.8388927597886613  0.38419448164599673  0.8719417562423617  1.0000
  C   C34       1.0  0.16110724030879722  0.8841944821754285  0.6280582440805627  1.0000
  C   C35       1.0  0.1611072401036716  0.6158055181057738  0.12805824391049964  1.0000
  C   C36       1.0  0.8388927600014527  0.11580551888343507  0.37194175607040714  1.0000
  C   C37       1.0  0.714475556830504  0.43691481440176344  0.8057509141294782  1.0000
  C   C38       1.0  0.2855244428490374  0.9369148149311952  0.6942490861953378  1.0000
  C   C39       1.0  0.28552444306182884  0.5630851853500071  0.19424908602338317  1.0000
  C   C40       1.0  0.7144755570432955  0.0630851848205753  0.3057509139575237  1.0000
  C   C41       1.0  0.8591852109779398  0.4758161839939061  0.7070053178087332  1.0000
  C   C42       1.0  0.1408147887016016  0.975816184523338  0.7929946825160827  1.0000
  C   C43       1.0  0.14081478891439306  0.5241838157578644  0.29299468234412823  1.0000
  C   C44       1.0  0.8591852111907312  0.024183815228432562  0.20700531763677857  1.0000
  C   C45       1.0  0.8804406116335673  0.6551672707149996  0.7398137258201604  1.0000
  C   C46       1.0  0.119559388045974  0.1551672701855678  0.7601862745046553  1.0000
  C   C47       1.0  0.11955938825876547  0.34483272903677087  0.26018627433270086  1.0000
  C   C48       1.0  0.8804406118463588  0.8448327295662027  0.23981372564820597  1.0000
  C   C49       1.0  0.8973875050770809  0.30744502682056735  0.8928026658664006  1.0000
  C   C50       1.0  0.1026124949778249  0.8074450273499991  0.607197333736758  1.0000
  C   C51       1.0  0.10261249481525196  0.6925549729312032  0.10719733428646083  1.0000
  C   C52       1.0  0.8973875048719553  0.19255497240177136  0.3928026656963374  1.0000
  C   C53       1.0  0.7639837073588982  0.5093099775031076  0.7582194165744733  1.0000
  C   C54       1.0  0.23601629273856026  0.009309978280768823  0.741780583748451  1.0000
  C   C55       1.0  0.2360162929513517  0.490690022248663  0.24178058357649654  1.0000
  C   C56       1.0  0.7639837071537726  0.9906900214710017  0.25821941640441026  1.0000
  C   C57       1.0  0.7610685697050851  0.014005452668626036  0.5969530880099225  1.0000
  C   C58       1.0  0.23893142993190364  0.5140054518909648  0.9030469115951273  1.0000
  C   C59       1.0  0.2389314301446951  0.9859945483902375  0.4030469114231727  1.0000
  C   C60       1.0  0.7610685699604293  0.48599454786080576  0.09695308855773406  1.0000
  C   C61       1.0  0.7182154009297457  0.9211565935781175  0.6529831144620237  1.0000
  C   C62       1.0  0.28178459912516  0.42115659304868575  0.8470168851411347  1.0000
  C   C63       1.0  0.28178459938050415  0.07884340748074607  0.3470168856889461  1.0000
  C   C64       1.0  0.7182154007246202  0.5788434067030848  0.1529831142919607  1.0000
  C   C65       1.0  0.927787652521122  0.7138358808262901  0.6810959094301415  1.0000
  C   C66       1.0  0.07221234757633636  0.2138358802968583  0.8189040908927828  1.0000
  C   C67       1.0  0.07221234737121078  0.28616411892548044  0.31890409072271986  1.0000
  C   C68       1.0  0.9277876523159964  0.7861641194549123  0.18109590926007843  1.0000
  C   C69       1.0  0.6683915915635833  0.5757573207315053  0.8068070711186337  1.0000
  C   C70       1.0  0.3316084085338752  0.07575732020207361  0.6931929292042907  1.0000
  C   C71       1.0  0.33160840874666664  0.42424267902026513  0.19319292903233617  1.0000
  C   C72       1.0  0.6683915913584576  0.924242679549697  0.3068070709485706  1.0000
  C   C73       1.0  0.94802186724155  0.8971035883037211  0.7100249596706084  1.0000
  C   C74       1.0  0.05197813281335569  0.3971035890813823  0.78997503993255  1.0000
  C   C75       1.0  0.05197813306869979  0.1028964114480495  0.28997504048036143  1.0000
  C   C76       1.0  0.9480218670364245  0.6028964119774813  0.21002495950054542  1.0000
  C   C77       1.0  0.9145649176552038  0.31926557929746147  0.0011418143097634583  1.0000
  C   C78       1.0  0.08543508244992046  0.8192655798268932  0.4988581856711433  1.0000
  C   C79       1.0  0.08543508265504605  0.6807344204543091  0.9988581858412064  1.0000
  C   C80       1.0  0.9145649174424123  0.18073441992487727  0.501141814481718  1.0000
  C   C81       1.0  0.622146907558691  0.5192201415553769  0.8676886934323538  1.0000
  C   C82       1.0  0.37785309253876737  0.01922014233303819  0.6323113068905707  1.0000
  C   C83       1.0  0.3778530927515589  0.4807798581963936  0.13231130671861616  1.0000
  C   C84       1.0  0.6221469073535654  0.9807798587258254  0.3676886932622907  1.0000
  C   C85       1.0  0.9726968590377597  0.24317135977563473  0.029789739343480958  1.0000
  C   C86       1.0  0.027303141067364665  0.7431713603050666  0.4702102606374259  1.0000
  C   C87       1.0  0.02730314127249026  0.7568286399761357  0.970210260807489  1.0000
  C   C88       1.0  0.9726968588249681  0.256828640753797  0.5297897395154355  1.0000
  N   N1        1.0  0.8162384045882399  0.3947454127885808  0.7664137981861224  1.0000
  N   N2        1.0  0.18376159550921847  0.8947454133180126  0.733586202136802  1.0000
  N   N3        1.0  0.18376159530409286  0.6052545869631898  0.23358620196673893  1.0000
  N   N4        1.0  0.8162384048010314  0.10525458774085106  0.26641379801416787  1.0000
  F   F1        1.0  0.380527993863466  0.7235301235587045  0.391267717028059  1.0000
  F   F2        1.0  0.6194720062416583  0.22353012302927272  0.10873228295284777  1.0000
  F   F3        1.0  0.6194720060288669  0.276469876193066  0.6087322831248023  1.0000
  F   F4        1.0  0.3805279936506745  0.7764698767224978  0.8912677172000136  1.0000
  F   F5        1.0  0.42288119737347346  0.4618756245753578  0.7001076334586944  1.0000
  F   F6        1.0  0.5771188026814323  0.9618756251047896  0.799892366144464  1.0000
  F   F7        1.0  0.5771188024763068  0.5381243751764127  0.29989236597440094  1.0000
  F   F8        1.0  0.4228811972109005  0.03812437464698088  0.2001076340083973  1.0000
  F   F9        1.0  0.48666156163637503  0.8520869549868795  0.40001129714246236  1.0000
  F   F10       1.0  0.5133384384687493  0.35208695445744775  0.09998870283844441  1.0000
  F   F11       1.0  0.513338438673875  0.14791304476489098  0.5999887030085075  1.0000
  F   F12       1.0  0.4866615614235836  0.6479130452943228  0.9000112973144169  1.0000
  F   F13       1.0  0.5293836572885571  0.5877610923665187  0.7059911806425002  1.0000
  F   F14       1.0  0.4706163428089014  0.08776109183708691  0.7940088196804241  1.0000
  F   F15       1.0  0.47061634260377583  0.41223890738525176  0.2940088195103611  1.0000
  F   F16       1.0  0.5293836575013485  0.9122389079146835  0.2059911804705457  1.0000
  F   F17       1.0  0.5615259221605475  0.7867491246473969  0.5581469935836201  1.0000
  F   F18       1.0  0.4384740778943583  0.28674912411796505  0.9418530060195385  1.0000
  F   F19       1.0  0.43847407814970235  0.21325087510437366  0.44185300656734977  1.0000
  F   F20       1.0  0.561525921955422  0.7132508756338054  0.058146993413557016  1.0000
  Br  Br1       1.0  0.32297950979473433  0.5097446068652612  0.5432810526337563  1.0000
  Br  Br2       1.0  0.6770204902601714  0.009744606335829418  0.9567189469694022  1.0000
  Br  Br3       1.0  0.6770204904729629  0.4902553928865093  0.45671894679744773  1.0000
  Br  Br4       1.0  0.32297950963216143  0.990255393415941  0.04328105318345915  1.0000
  I   I1        1.0  0.19040307348770844  0.38953023819263644  0.5523183238699353  1.0000
  I   I2        1.0  0.80959692660975  0.8895302374149752  0.9476816764529891  1.0000
  I   I3        1.0  0.8095969268225414  0.6104697628662271  0.44768167628103456  1.0000
  I   I4        1.0  0.1904030732825828  0.11046976233679541  0.05231832369987229  1.0000
