data_image0
_chemical_formula_structural       H144C104N4F28Br4I4
_chemical_formula_sum              "H144 C104 N4 F28 Br4 I4"
_cell_length_a       25.874425279453895
_cell_length_b       7.84068040112867
_cell_length_c       13.86996497010063
_cell_angle_alpha    90.0
_cell_angle_beta     99.85979862215456
_cell_angle_gamma    90.0

_space_group_name_H-M_alt    "P 1"
_space_group_IT_number       1

loop_
  _space_group_symop_operation_xyz
  'x, y, z'

loop_
  _atom_site_type_symbol
  _atom_site_label
  _atom_site_symmetry_multiplicity
  _atom_site_fract_x
  _atom_site_fract_y
  _atom_site_fract_z
  _atom_site_occupancy
  H   H1        1.0  0.7984307362364196  0.8706969090357605  0.3414975200729621  1.0000
  H   H2        1.0  0.2015692634505845  0.3706969091077358  0.1585024795298411  1.0000
  H   H3        1.0  0.2015692636897007  0.12930309209568847  0.6585024798783216  1.0000
  H   H4        1.0  0.7984307364755358  0.6293030920237133  0.8414975204214425  1.0000
  H   H5        1.0  0.8578175629594995  0.882897522388937  0.4244253462534258  1.0000
  H   H6        1.0  0.14218243718149215  0.3828975224609123  0.07557465408040441  1.0000
  H   H7        1.0  0.14218243742060832  0.11710247746711241  0.5755746544288849  1.0000
  H   H8        1.0  0.8578175627446283  0.6171024773951371  0.9244253458708791  1.0000
  H   H9        1.0  0.8146224793434258  0.7686495522929934  0.559707590254116  1.0000
  H   H10       1.0  0.18537752036782323  0.2686495523649687  0.9402924093146209  1.0000
  H   H11       1.0  0.18537752058269452  0.2313504475630561  0.44029240969716754  1.0000
  H   H12       1.0  0.8146224795582973  0.7313504474910808  0.05970759063666267  1.0000
  H   H13       1.0  0.7548850528233643  0.7471008458853609  0.4782554914363376  1.0000
  H   H14       1.0  0.24511494725005162  0.24710084595733614  0.02174450816570197  1.0000
  H   H15       1.0  0.24511494710275605  0.25289915397068863  0.521744508514946  1.0000
  H   H16       1.0  0.7548850530624804  0.7528991538987133  0.978255491784818  1.0000
  H   H17       1.0  0.9428813066110036  0.640200347826628  0.35024908715820424  1.0000
  H   H18       1.0  0.05711869352998802  0.1402003478986033  0.149750913175626  1.0000
  H   H19       1.0  0.057118693315116736  0.35979965202942144  0.6497509127930794  1.0000
  H   H20       1.0  0.9428813063961323  0.8597996519574461  0.8502490867756577  1.0000
  H   H21       1.0  0.9155677067855622  0.8487284928795293  0.3331383015309979  1.0000
  H   H22       1.0  0.0844322929690177  0.34872849295150465  0.16686169880359594  1.0000
  H   H23       1.0  0.08443229320813389  0.1512715069765201  0.6668616991520764  1.0000
  H   H24       1.0  0.9155677069571027  0.6512715069045448  0.8331383011476876  1.0000
  H   H25       1.0  0.833719753392954  0.7283797359190791  0.23585077890598774  1.0000
  H   H26       1.0  0.16628024668046187  0.22837973599105438  0.2641492206960518  1.0000
  H   H27       1.0  0.16628024653316636  0.27162026393697036  0.7641492210452957  1.0000
  H   H28       1.0  0.8337197536320701  0.771620263864995  0.7358507792544681  1.0000
  H   H29       1.0  0.8588601427461529  0.516866326985682  0.25586973719838546  1.0000
  H   H30       1.0  0.1411398573272629  0.016866327057657327  0.24413026240365407  1.0000
  H   H31       1.0  0.14113985717996735  0.4831336728703674  0.7441302627528982  1.0000
  H   H32       1.0  0.8588601425988573  0.983133672798392  0.7558697375476295  1.0000
  H   H33       1.0  0.7741778209859753  0.4959305559043394  0.42674199757569203  1.0000
  H   H34       1.0  0.2258221791550163  0.9959305558323641  0.07325800275813818  1.0000
  H   H35       1.0  0.225822178940145  0.50406944395171  0.5732580023755915  1.0000
  H   H36       1.0  0.7741778207711041  0.00406944402368536  0.9267419971931454  1.0000
  H   H37       1.0  0.8003760458715935  0.4000880229155154  0.3291464312070084  1.0000
  H   H38       1.0  0.1996239538829864  0.9000880228435402  0.17085356912758537  1.0000
  H   H39       1.0  0.19962395405452682  0.599911976940534  0.670853568744275  1.0000
  H   H40       1.0  0.800376046043134  0.09991197701250931  0.8291464308236982  1.0000
  H   H41       1.0  0.8523665562011382  0.5528169161666189  0.5255665024269662  1.0000
  H   H42       1.0  0.14763344396409828  0.052816916238594185  0.9744334978727979  1.0000
  H   H43       1.0  0.1476334437249821  0.44718308368943055  0.4744334975243174  1.0000
  H   H44       1.0  0.852366555962022  0.9471830836174553  0.02556650207848573  1.0000
  H   H45       1.0  0.9057448717232348  0.644563856890851  0.4782025712356086  1.0000
  H   H46       1.0  0.09425512835018104  0.1445638569628262  0.02179742836643098  1.0000
  H   H47       1.0  0.09425512820288554  0.35543614296519854  0.521797428715675  1.0000
  H   H48       1.0  0.905744871962351  0.8554361428932232  0.9782025715840891  1.0000
  H   H49       1.0  0.7563715411985348  0.6336778373576848  0.21524815456949353  1.0000
  H   H50       1.0  0.2436284585560452  0.13367783742966005  0.2847518457651004  1.0000
  H   H51       1.0  0.24362845872758565  0.36632216377376425  0.7847518453817901  1.0000
  H   H52       1.0  0.7563715413700751  0.8663221637017889  0.7152481541861831  1.0000
  H   H53       1.0  0.7240623945871754  0.7037028265054333  0.30999753120590084  1.0000
  H   H54       1.0  0.27593760548624036  0.2037028265774086  0.19000246839613866  1.0000
  H   H55       1.0  0.2759376053389449  0.2962971733506161  0.6900024687453827  1.0000
  H   H56       1.0  0.7240623948262916  0.7962971732786409  0.8099975315543814  1.0000
  H   H57       1.0  0.9715467553021978  0.406282345029832  0.5149896187742222  1.0000
  H   H58       1.0  0.028453244863038712  0.9062823449578568  0.9850103815255418  1.0000
  H   H59       1.0  0.028453245010334232  0.5937176548262175  0.4850103811762977  1.0000
  H   H60       1.0  0.9715467550630816  0.09371765489819273  0.01498961842574187  1.0000
  H   H61       1.0  0.9274885150613729  0.35585222292677055  0.5954462918783595  1.0000
  H   H62       1.0  0.07251148464987617  0.8558522228547952  0.9045537076903774  1.0000
  H   H63       1.0  0.07251148486474747  0.644147776929279  0.40455370807292396  1.0000
  H   H64       1.0  0.9274885152762441  0.1441477770012542  0.09544629226090628  1.0000
  H   H65       1.0  0.9330391000984333  0.6057669075908627  0.1691771674812961  1.0000
  H   H66       1.0  0.06696089965614653  0.10576690766283804  0.3308228328532978  1.0000
  H   H67       1.0  0.06696089982768694  0.3942330922651867  0.8308228324699874  1.0000
  H   H68       1.0  0.9330391002699737  0.8942330921932115  0.6691771670979858  1.0000
  H   H69       1.0  0.9038350970447206  0.8105940103214904  0.15322383592082583  1.0000
  H   H70       1.0  0.09616490302869511  0.31059401039346557  0.3467761636812137  1.0000
  H   H71       1.0  0.09616490288139957  0.18940598953455917  0.8467761640304579  1.0000
  H   H72       1.0  0.9038350972838369  0.6894059894625839  0.6532238362693062  1.0000
  H   H73       1.0  0.9566579317626932  0.10487795037298388  0.44272663811681745  1.0000
  H   H74       1.0  0.04334206837829832  0.6048779503010087  0.0572733622170128  1.0000
  H   H75       1.0  0.043342068231002784  0.8951220494830656  0.5572733625662568  1.0000
  H   H76       1.0  0.956657931547822  0.3951220495550408  0.9427266377342709  1.0000
  H   H77       1.0  0.917935002809365  0.06006184360380382  0.53353721340113  1.0000
  H   H78       1.0  0.08206499696945978  0.5600618435318286  0.9664627868993976  1.0000
  H   H79       1.0  0.08206499711675531  0.9399381562522456  0.4664627865501536  1.0000
  H   H80       1.0  0.9179350029566606  0.43993815632422095  0.033537213051885936  1.0000
  H   H81       1.0  0.9857579639875582  0.10443531659345878  0.5685201263067603  1.0000
  H   H82       1.0  0.014242036177678384  0.604435317796883  0.9314798739930038  1.0000
  H   H83       1.0  0.014242036324973903  0.8955646832625908  0.4314798736437596  1.0000
  H   H84       1.0  0.9857579637484418  0.3955646833345659  0.06852012595827985  1.0000
  H   H85       1.0  0.7195415080212251  0.3384515442840904  0.229473406990305  1.0000
  H   H86       1.0  0.280458491665779  0.8384515442121151  0.2705265926124981  1.0000
  H   H87       1.0  0.2804584919048952  0.661548455571959  0.7705265929609786  1.0000
  H   H88       1.0  0.7195415082603412  0.16154845564393433  0.7294734073387855  1.0000
  H   H89       1.0  0.6834210939892063  0.41591434711846814  0.31696975698087204  1.0000
  H   H90       1.0  0.3165789061517854  0.9159143470464929  0.1830302433529582  1.0000
  H   H91       1.0  0.3165789063233258  0.5840856527375813  0.683030242969648  1.0000
  H   H92       1.0  0.683421093774335  0.08408565280955656  0.8169697565983253  1.0000
  H   H93       1.0  0.9021373068650694  0.3629519945221013  0.37141977644004553  1.0000
  H   H94       1.0  0.09786269320834631  0.862951994450126  0.128580223161994  1.0000
  H   H95       1.0  0.09786269344746251  0.6370480053339482  0.6285802235104745  1.0000
  H   H96       1.0  0.9021373067177739  0.13704800540592346  0.8714197767892897  1.0000
  H   H97       1.0  0.8589504295273299  0.2852288571382237  0.4457991260421782  1.0000
  H   H98       1.0  0.14104957054608602  0.7852288570662485  0.05420087355986134  1.0000
  H   H99       1.0  0.14104957039879049  0.7147711427178258  0.5542008739091054  1.0000
  H   H100      1.0  0.8589504297664461  0.214771142789801  0.9457991263906587  1.0000
  H   H101      1.0  0.6736483713485153  0.5463313068319138  0.10508037525753286  1.0000
  H   H102      1.0  0.32635162879247637  0.046331306903889015  0.3949196250762974  1.0000
  H   H103      1.0  0.3263516286451808  0.4536686930241357  0.8949196254255415  1.0000
  H   H104      1.0  0.673648371133644  0.9536686929521605  0.6050803748749862  1.0000
  H   H105      1.0  0.6365195553356278  0.6232393810231787  0.1927164354294576  1.0000
  H   H106      1.0  0.36348044480536384  0.12323938109515387  0.30728356490437264  1.0000
  H   H107      1.0  0.36348044497690424  0.3767606188328709  0.8072835645210623  1.0000
  H   H108      1.0  0.6365195551207565  0.8767606187608956  0.6927164350469108  1.0000
  H   H109      1.0  0.6283427804697396  0.41042867268722766  0.14946288097000257  1.0000
  H   H110      1.0  0.371657219671252  0.9104286726152524  0.35053711936382775  1.0000
  H   H111      1.0  0.3716572194563807  0.5895713271688218  0.850537118981281  1.0000
  H   H112      1.0  0.6283427803224442  0.08957132724079706  0.6494628813192467  1.0000
  H   H113      1.0  0.7617060164276824  0.012687995800170536  0.5813567261816485  1.0000
  H   H114      1.0  0.23829398328356668  0.5126879957281952  0.9186432733870885  1.0000
  H   H115      1.0  0.23829398349843794  0.9873120040558789  0.41864327376963517  1.0000
  H   H116      1.0  0.7617060166425537  0.4873120041278542  0.08135672656419508  1.0000
  H   H117      1.0  0.8129535889579657  0.08657797477656173  0.5257900802494344  1.0000
  H   H118      1.0  0.18704641113969506  0.5865779747045865  0.974209919318539  1.0000
  H   H119      1.0  0.1870464109681546  0.9134220250794878  0.4742099197018491  1.0000
  H   H120      1.0  0.8129535887864253  0.413422025151463  0.02579008063274473  1.0000
  H   H121      1.0  0.998344140295099  0.8268345651567148  0.1366859659381402  1.0000
  H   H122      1.0  0.0016558594594807895  0.32683456522869003  0.36331403439645366  1.0000
  H   H123      1.0  0.0016558596310212172  0.17316543469933468  0.8633140340131434  1.0000
  H   H124      1.0  0.9983441404666394  0.6731654346273594  0.6366859655548299  1.0000
  H   H125      1.0  0.017496630816508256  0.7424142309335883  0.25608483174527974  1.0000
  H   H126      1.0  0.9825033693244835  0.24241423100556353  0.24391516858855053  1.0000
  H   H127      1.0  0.9825033691096122  0.2575857689224612  0.743915168206004  1.0000
  H   H128      1.0  0.017496630988048673  0.757585768850486  0.7560848313619695  1.0000
  H   H129      1.0  0.9866824371643401  0.9452858005707112  0.23959266884934036  1.0000
  H   H130      1.0  0.013317562909075754  0.44528580064268647  0.2604073307526992  1.0000
  H   H131      1.0  0.01331756276178022  0.05471419928533826  0.7604073311019433  1.0000
  H   H132      1.0  0.9866824370170446  0.554714199213363  0.7395926691985845  1.0000
  H   H133      1.0  0.7524941499360827  0.09992420809388157  0.3620245455165562  1.0000
  H   H134      1.0  0.24750585020490903  0.5999242080219063  0.13797545481727405  1.0000
  H   H135      1.0  0.24750584999003775  0.9000757917621679  0.6379754544347275  1.0000
  H   H136      1.0  0.752494150107623  0.40007579183414316  0.8620245451332459  1.0000
  H   H137      1.0  0.7261134425456549  0.21551308732807892  0.4520692948230462  1.0000
  H   H138      1.0  0.2738865575953368  0.7155130872561036  0.047930705510784065  1.0000
  H   H139      1.0  0.2738865577668772  0.7844869125279705  0.5479307051274738  1.0000
  H   H140      1.0  0.7261134423983594  0.2844869125999458  0.9520692951722903  1.0000
  H   H141      1.0  0.7010318648681612  0.011066987246095252  0.4159108395274642  1.0000
  H   H142      1.0  0.29896813520525467  0.51106698717412  0.08408916007457536  1.0000
  H   H143      1.0  0.29896813544437084  0.9889330138853537  0.5840891604230558  1.0000
  H   H144      1.0  0.7010318647208658  0.4889330126819295  0.9159108398767082  1.0000
  C   C1        1.0  0.4516008258758676  0.40901471504161263  0.38266758336580264  1.0000
  C   C2        1.0  0.5483991741975482  0.9090147149696374  0.11733241623623691  1.0000
  C   C3        1.0  0.5483991740502527  0.5909852848144369  0.617332416585481  1.0000
  C   C4        1.0  0.4516008257285721  0.09098528488641211  0.8826675837150467  1.0000
  C   C5        1.0  0.4650715775128074  0.2979685244744438  0.4663329842463235  1.0000
  C   C6        1.0  0.5349284221741968  0.7979685244024686  0.03366701535647956  1.0000
  C   C7        1.0  0.5349284224133128  0.7020314766570052  0.53366701570496  1.0000
  C   C8        1.0  0.46507157775192354  0.20203147545358094  0.9663329845948041  1.0000
  C   C9        1.0  0.3763531002049065  0.33192070163009973  0.5000499024243729  1.0000
  C   C10       1.0  0.6236468998927543  0.8319207015581244  0.9999500971436005  1.0000
  C   C11       1.0  0.6236468997212139  0.6680792982259497  0.4999500975269107  1.0000
  C   C12       1.0  0.3763531000333661  0.168079298297925  4.990280768312518e-05  1.0000
  C   C13       1.0  0.36190567005639857  0.436197982193953  0.4172347047646239  1.0000
  C   C14       1.0  0.638094330084593  0.9361979821219778  0.08276529556920634  1.0000
  C   C15       1.0  0.6380943303237093  0.5638020176620965  0.5827652959176868  1.0000
  C   C16       1.0  0.3619056698415273  0.06380201773407172  0.9172347043820773  1.0000
  C   C17       1.0  0.5412138499276052  0.383166219805048  0.35151856198348247  1.0000
  C   C18       1.0  0.4587861502133863  0.8831662197330727  0.14848143835034774  1.0000
  C   C19       1.0  0.4587861500660908  0.6168337800510014  0.6484814386995919  1.0000
  C   C20       1.0  0.541213849712734  0.11683378012297672  0.8515185616009359  1.0000
  C   C21       1.0  0.4913775432122579  0.4496659205102245  0.32785247137364426  1.0000
  C   C22       1.0  0.5086224569287336  0.9496659204382493  0.172147528960186  1.0000
  C   C23       1.0  0.5086224567138624  0.5503340793458249  0.6721475285776394  1.0000
  C   C24       1.0  0.4913775434513741  0.0503340794178002  0.8278524717221247  1.0000
  C   C25       1.0  0.39952534581996463  0.4728831109435695  0.36073100833413324  1.0000
  C   C26       1.0  0.600474654321027  0.9728831108715942  0.13926899199969706  1.0000
  C   C27       1.0  0.6004746541061557  0.5271168901878795  0.6392689916171505  1.0000
  C   C28       1.0  0.399525345991505  0.027116890259854743  0.8607310079508229  1.0000
  C   C29       1.0  0.5540602081712603  0.272298970340975  0.4318422893510627  1.0000
  C   C30       1.0  0.44593979190215555  0.7722989702689997  0.06815771025097687  1.0000
  C   C31       1.0  0.44593979175486  0.7277010295150744  0.5681577106002209  1.0000
  C   C32       1.0  0.5540602080239648  0.22770102958704969  0.9318422897003067  1.0000
  C   C33       1.0  0.4258993210777673  0.26331164699721826  0.5234773895483905  1.0000
  C   C34       1.0  0.5741006790874692  0.763311646925243  0.9765226107513735  1.0000
  C   C35       1.0  0.574100678848353  0.7366883528588312  0.47652261040289307  1.0000
  C   C36       1.0  0.42589932122506285  0.23668835293080648  0.023477389199146437  1.0000
  C   C37       1.0  0.5167493495624047  0.23216951295935453  0.4881584354623612  1.0000
  C   C38       1.0  0.48325065051101107  0.7321695128873793  0.011841564139678393  1.0000
  C   C39       1.0  0.48325065036371556  0.7678304868966949  0.5118415644889224  1.0000
  C   C40       1.0  0.5167493494151092  0.2678304869686702  0.9881584358116052  1.0000
  C   C41       1.0  0.8207287605028855  0.8125423743943073  0.40765867828913904  1.0000
  C   C42       1.0  0.1792712395705304  0.31254237446628264  0.0923413213129005  1.0000
  C   C43       1.0  0.1792712394232349  0.18745762546174208  0.5923413216621446  1.0000
  C   C44       1.0  0.8207287607420016  0.6874576253897668  0.9076586786376195  1.0000
  C   C45       1.0  0.7911258006075721  0.8224231023460356  0.4930902612167905  1.0000
  C   C46       1.0  0.20887419953341954  0.3224231024180109  0.0069097391170397  1.0000
  C   C47       1.0  0.20887419938612406  0.17757689751001382  0.5069097394662838  1.0000
  C   C48       1.0  0.7911258003927006  0.6775768974380386  0.993090260834244  1.0000
  C   C49       1.0  0.9149769377435977  0.7201571000377952  0.3011591349086385  1.0000
  C   C50       1.0  0.08502306239739395  0.2201571001097705  0.19884086542519175  1.0000
  C   C51       1.0  0.08502306218252265  0.2798428998182543  0.6988408650426451  1.0000
  C   C52       1.0  0.9149769375287263  0.7798429010216785  0.8011591345260918  1.0000
  C   C53       1.0  0.859856744035338  0.6462949898162595  0.2866511370460582  1.0000
  C   C54       1.0  0.1401432561056537  0.14629498988823483  0.21334886328777203  1.0000
  C   C55       1.0  0.14014325627719412  0.3537050100397899  0.7133488629044618  1.0000
  C   C56       1.0  0.8598567438204665  0.8537050099678146  0.7866511366635115  1.0000
  C   C57       1.0  0.7866433619116853  0.5207316037792161  0.3562543973332618  1.0000
  C   C58       1.0  0.2133566382293064  0.020731603851191393  0.14374560300056846  1.0000
  C   C59       1.0  0.21335663840084682  0.4792683960768333  0.6437456026172582  1.0000
  C   C60       1.0  0.7866433616968139  0.979268396004858  0.8562543969507153  1.0000
  C   C61       1.0  0.8725953069171988  0.5557047114651928  0.46215161480830036  1.0000
  C   C62       1.0  0.12740469276980523  0.05570471153716809  0.03784838479450276  1.0000
  C   C63       1.0  0.12740469300892143  0.44429528839085664  0.5378483851429833  1.0000
  C   C64       1.0  0.8725953071563152  0.9442952883188813  0.9621516151567809  1.0000
  C   C65       1.0  0.7420265191164562  0.591559885457431  0.2815301301251279  1.0000
  C   C66       1.0  0.2579734810245354  0.09155988552940623  0.21846987020870237  1.0000
  C   C67       1.0  0.2579734808096641  0.40844011439861855  0.7184698698261558  1.0000
  C   C68       1.0  0.742026518901585  0.9084401143266432  0.7815301297425813  1.0000
  C   C69       1.0  0.9372111616092043  0.32728647881510403  0.5228903481379154  1.0000
  C   C70       1.0  0.06278883855603225  0.8272864787431288  0.9771096521618486  1.0000
  C   C71       1.0  0.06278883831691606  0.6727135210409454  0.47710965181336823  1.0000
  C   C72       1.0  0.937211161370088  0.1727135211129207  0.022890347789434967  1.0000
  C   C73       1.0  0.9329245817366526  0.733735707320994  0.20189781821163702  1.0000
  C   C74       1.0  0.06707541801792719  0.2337357073929693  0.2981021821229569  1.0000
  C   C75       1.0  0.0670754181894676  0.26626429381045497  0.7981021817396465  1.0000
  C   C76       1.0  0.9329245819081932  0.7662642937384797  0.7018978178283268  1.0000
  C   C77       1.0  0.9504044041621317  0.13889147424542866  0.5167368359365335  1.0000
  C   C78       1.0  0.04959559600310485  0.6388914741734535  0.9832631643632305  1.0000
  C   C79       1.0  0.049595596150400385  0.8611085256106208  0.48326316401398656  1.0000
  C   C80       1.0  0.9504044039230154  0.3611085256825961  0.016736835588053025  1.0000
  C   C81       1.0  0.7004849433754912  0.453320391619119  0.2526400746579511  1.0000
  C   C82       1.0  0.29951505631151304  0.9533203915471438  0.24735992494485204  1.0000
  C   C83       1.0  0.2995150565506292  0.54667960951233  0.7473599252933325  1.0000
  C   C84       1.0  0.7004849436146072  0.046679609584305226  0.7526400750064315  1.0000
  C   C85       1.0  0.890950322430387  0.37666505952402674  0.44396015483541096  1.0000
  C   C86       1.0  0.1090496773241929  0.8766650594520514  0.0560398454991829  1.0000
  C   C87       1.0  0.10904967749573334  0.6233349403320229  0.5560398451158726  1.0000
  C   C88       1.0  0.8909503226019274  0.12333494040399803  0.9439601544521008  1.0000
  C   C89       1.0  0.6572719206269774  0.511494506193964  0.17046890462600964  1.0000
  C   C90       1.0  0.34272807944643846  0.011494506265939177  0.3295310949760299  1.0000
  C   C91       1.0  0.3427280792991429  0.4885054936620855  0.8295310953252739  1.0000
  C   C92       1.0  0.6572719204796819  0.9885054935901103  0.6704689049752538  1.0000
  C   C93       1.0  0.7771079758607237  0.008098628786203212  0.51226469380051  1.0000
  C   C94       1.0  0.22289202430451294  0.5080986299896274  0.987735306499254  1.0000
  C   C95       1.0  0.22289202406539677  0.9919013710698463  0.4877353061507736  1.0000
  C   C96       1.0  0.7771079756216075  0.49190137114182153  0.012264693452029546  1.0000
  C   C97       1.0  0.9868741110929516  0.8159971039093761  0.2090684347575196  1.0000
  C   C98       1.0  0.01312588866162839  0.31599710398135133  0.2909315655770743  1.0000
  C   C99       1.0  0.013125888900744561  0.18400289594667338  0.7909315659255547  1.0000
  C   C100      1.0  0.986874111264492  0.6840028958746982  0.7090684343742094  1.0000
  C   C101      1.0  0.7371475799551112  0.08748474557147598  0.4308329531852102  1.0000
  C   C102      1.0  0.262852419731893  0.5874847454995007  0.06916704641759298  1.0000
  C   C103      1.0  0.2628524199710092  0.9125152542845735  0.5691670467660734  1.0000
  C   C104      1.0  0.7371475801942272  0.41251525435654873  0.9308329535336907  1.0000
  N   N1        1.0  0.8349797973929463  0.634097255039794  0.37842198910982805  1.0000
  N   N2        1.0  0.16502020236163373  0.13409725511176918  0.12157801122476586  1.0000
  N   N3        1.0  0.16502020253317412  0.3659027448162555  0.6215780108414556  1.0000
  N   N4        1.0  0.8349797975644866  0.8659027447442803  0.8784219887265178  1.0000
  F   F1        1.0  0.4822325446058483  0.5587801065541864  0.251588341008741  1.0000
  F   F2        1.0  0.5177674550811558  0.05878010662616176  0.24841165859406214  1.0000
  F   F3        1.0  0.517767455320272  0.44121989330186295  0.7484116589425425  1.0000
  F   F4        1.0  0.4822325448449644  0.9412198932298876  0.7515883413572214  1.0000
  F   F5        1.0  0.38599661528863105  0.5723864371966959  0.28067526872783416  1.0000
  F   F6        1.0  0.6140033847847848  0.07238643726867117  0.21932473087420534  1.0000
  F   F7        1.0  0.6140033846374893  0.4276135626593535  0.7193247312234494  1.0000
  F   F8        1.0  0.38599661514133554  0.9276135625873784  0.7806752690770782  1.0000
  F   F9        1.0  0.34088582940562323  0.29502799650742184  0.5581371913336322  1.0000
  F   F10       1.0  0.6591141707596132  0.7950279964354465  0.9418628089661318  1.0000
  F   F11       1.0  0.659114170520497  0.7049720033486276  0.44186280861765137  1.0000
  F   F12       1.0  0.34088582916650706  0.20497200342060293  0.05813719098515178  1.0000
  F   F13       1.0  0.5312418007642141  0.12863696750792333  0.5661179081142873  1.0000
  F   F14       1.0  0.46875819894703485  0.6286369674359481  0.9338820914544496  1.0000
  F   F15       1.0  0.4687581991619062  0.8713630323481262  0.4338820918369963  1.0000
  F   F16       1.0  0.5312418009790855  0.3713630324201014  0.06611790849683401  1.0000
  F   F17       1.0  0.43650185238739647  0.16296476002466145  0.6037633527445408  1.0000
  F   F18       1.0  0.5634981477102643  0.6629647599526861  0.8962366468234325  1.0000
  F   F19       1.0  0.5634981475387238  0.8370352398313881  0.3962366472067428  1.0000
  F   F20       1.0  0.43650185260226776  0.33703523990336326  0.10376335312708747  1.0000
  F   F21       1.0  0.6029564949754082  0.20889102172360335  0.45313894060459176  1.0000
  F   F22       1.0  0.3970435051655835  0.7088910216516281  0.046861059729238486  1.0000
  F   F23       1.0  0.3970435053371239  0.7911089794078456  0.5468610593459282  1.0000
  F   F24       1.0  0.6029564947605368  0.29110897947982095  0.9531389402220452  1.0000
  F   F25       1.0  0.5783567477189094  0.42496796827994054  0.29887633493467847  1.0000
  F   F26       1.0  0.42164325242208217  0.9249679682079652  0.20112366539915175  1.0000
  F   F27       1.0  0.4216432522072109  0.575032031576109  0.7011236650166051  1.0000
  F   F28       1.0  0.5783567478904498  0.07503203164808421  0.7988763345513682  1.0000
  Br  Br1       1.0  0.29118284254707677  0.5130196034289282  0.38127371748186667  1.0000
  Br  Br2       1.0  0.7088171571399273  0.013019603500903462  0.11872628212093653  1.0000
  Br  Br3       1.0  0.7088171573790437  0.48698039642712126  0.618726282469417  1.0000
  Br  Br4       1.0  0.29118284278619294  0.986980396355146  0.8812737178303471  1.0000
  I   I1        1.0  0.16779186853138314  0.629366701299246  0.3030094354391207  1.0000
  I   I2        1.0  0.8322081311556211  0.12936670137122128  0.19699056416368255  1.0000
  I   I3        1.0  0.8322081313947373  0.3706332985568035  0.6969905645121629  1.0000
  I   I4        1.0  0.16779186877049931  0.8706332984848282  0.8030094357876012  1.0000
