data_image0
_chemical_formula_structural       H14C14N2O2I4
_chemical_formula_sum              "H14 C14 N2 O2 I4"
_cell_length_a       7.908679097738436
_cell_length_b       8.104393425064105
_cell_length_c       8.774103043694032
_cell_angle_alpha    67.15568393278896
_cell_angle_beta     76.43925040160144
_cell_angle_gamma    83.98074579339645

_space_group_name_H-M_alt    "P 1"
_space_group_IT_number       1

loop_
  _space_group_symop_operation_xyz
  'x, y, z'

loop_
  _atom_site_type_symbol
  _atom_site_label
  _atom_site_symmetry_multiplicity
  _atom_site_fract_x
  _atom_site_fract_y
  _atom_site_fract_z
  _atom_site_occupancy
  H   H1        1.0  0.5318386911402125  0.14657873591363163  0.689477532667296  1.0000
  H   H2        1.0  0.4681613084035728  0.853421263928702  0.3105224673724393  1.0000
  H   H3        1.0  0.8174295580893723  0.28920679821601447  0.5306458180010443  1.0000
  H   H4        1.0  0.18257044258938526  0.7107932028566989  0.4693541820502939  1.0000
  H   H5        1.0  0.8530066316327557  0.47899315429549105  0.21827811607710845  1.0000
  H   H6        1.0  0.1469933679110298  0.5210068455468425  0.7817218839626268  1.0000
  H   H7        1.0  0.5979879707981504  0.5149027166877609  0.08209745820184382  1.0000
  H   H8        1.0  0.4020120300108644  0.48509728314927214  0.9179025418369711  1.0000
  H   H9        1.0  0.13865040177647725  0.2779833372896009  0.5525619072892358  1.0000
  H   H10       1.0  0.8613495977673084  0.7220166625527328  0.44743809275049934  1.0000
  H   H11       1.0  0.236632001341979  0.08915329169222606  0.6923682695813475  1.0000
  H   H12       1.0  0.7633679982018066  0.9108467081501077  0.3076317304583877  1.0000
  H   H13       1.0  0.20402461816785672  0.08985834761803298  0.49721886206722177  1.0000
  H   H14       1.0  0.7959753813759286  0.9101416522243009  0.5027811379725134  1.0000
  C   C1        1.0  0.06224441699680337  0.9738169586132338  0.04537283471436151  1.0000
  C   C2        1.0  0.9377555825469821  0.026183041229099986  0.9546271653253737  1.0000
  C   C3        1.0  0.4134355546786062  0.2514656505822643  0.47427680256355137  1.0000
  C   C4        1.0  0.5865644461304084  0.7485343492547685  0.5257231974752636  1.0000
  C   C5        1.0  0.5513445747915734  0.22883860876017875  0.5547101949315758  1.0000
  C   C6        1.0  0.44865542475221204  0.771161391082155  0.44528980510815935  1.0000
  C   C7        1.0  0.7109909556055558  0.3087231961901257  0.46578778477922655  1.0000
  C   C8        1.0  0.2890090439382296  0.691276803652208  0.5342122152605087  1.0000
  C   C9        1.0  0.7310682114730835  0.4136948696494649  0.29399170098455135  1.0000
  C   C10       1.0  0.2689317893359309  0.5863051301875679  0.7060082990542637  1.0000
  C   C11       1.0  0.5931809268937854  0.43595613488050766  0.21563294649206644  1.0000
  C   C12       1.0  0.4068190739152291  0.5640438649565251  0.7843670535467485  1.0000
  C   C13       1.0  0.2391097201067219  0.17202139230745359  0.5593084556373175  1.0000
  C   C14       1.0  0.7608902794370636  0.8279786075348801  0.4406915444024177  1.0000
  N   N1        1.0  0.4384322402952371  0.3553786623803836  0.30430803725457795  1.0000
  N   N2        1.0  0.5615677603835205  0.6446213386923298  0.69569196279676  1.0000
  O   O1        1.0  0.30884019836114485  0.3793225243081413  0.22546953947162504  1.0000
  O   O2        1.0  0.6911598024478697  0.6206774755288916  0.77453046056719  1.0000
  I   I1        1.0  0.1725697749213226  0.7118328182085603  0.12057674825549061  1.0000
  I   I2        1.0  0.827430225887692  0.28816718162847277  0.8794232517833244  1.0000
  I   I3        1.0  0.1678092364381982  0.14333615093267515  0.1314373947203852  1.0000
  I   I4        1.0  0.832190763105587  0.8566638489096587  0.86856260531935  1.0000
