data_image0
_chemical_formula_structural       H40C24N12O8S4I4
_chemical_formula_sum              "H40 C24 N12 O8 S4 I4"
_cell_length_a       11.190768609771903
_cell_length_b       9.42637951948813
_cell_length_c       9.758141509462325
_cell_angle_alpha    90.0
_cell_angle_beta     104.78655702308123
_cell_angle_gamma    90.0

_space_group_name_H-M_alt    "P 1"
_space_group_IT_number       1

loop_
  _space_group_symop_operation_xyz
  'x, y, z'

loop_
  _atom_site_type_symbol
  _atom_site_label
  _atom_site_symmetry_multiplicity
  _atom_site_fract_x
  _atom_site_fract_y
  _atom_site_fract_z
  _atom_site_occupancy
  H   H1        1.0  0.5045013128455298  0.631313569297404  0.7737279820628162  1.0000
  H   H2        1.0  0.49549868715790446  0.13131356927025314  0.7262720187126613  1.0000
  H   H3        1.0  0.4954986879124769  0.36868643075689783  0.22627201889668466  1.0000
  H   H4        1.0  0.5045013124685581  0.8686864307840488  0.27372798119031616  1.0000
  H   H5        1.0  0.35769951965986574  0.19182079888272813  0.8636353085275044  1.0000
  H   H6        1.0  0.6423004803435685  0.691820798909879  0.6363646922479732  1.0000
  H   H7        1.0  0.6423004799665969  0.8081792011715738  0.13636469137547308  1.0000
  H   H8        1.0  0.35769951928289406  0.3081792011444228  0.3636353076550042  1.0000
  H   H9        1.0  0.2432035815901584  0.10422527206430045  0.9274922131983057  1.0000
  H   H10       1.0  0.7567964190674161  0.6042252720914514  0.5725077865139356  1.0000
  H   H11       1.0  0.7567964189291463  0.8957747279900015  0.07250778670131544  1.0000
  H   H12       1.0  0.2432035814518887  0.3957747279628505  0.4274922133856853  1.0000
  H   H13       1.0  0.36178846865747866  0.6144759520900906  0.9099411742216001  1.0000
  H   H14       1.0  0.6382115311072537  0.11447595206293974  0.5900588254939977  1.0000
  H   H15       1.0  0.6382115318618262  0.38552404796421125  0.09005882567802094  1.0000
  H   H16       1.0  0.3617884685192089  0.8855240479913621  0.40994117440897987  1.0000
  H   H17       1.0  0.15679473565730992  0.342316841087173  0.15195544057599192  1.0000
  H   H18       1.0  0.8432052647237251  0.8423168411143239  0.3480445595110089  1.0000
  H   H19       1.0  0.8432052648619949  0.6576831589671289  0.8480445593236292  1.0000
  H   H20       1.0  0.15679473579557968  0.15768315893997797  0.6519554403886123  1.0000
  H   H21       1.0  0.1860947520266928  0.5077292337005217  0.07644454977089808  1.0000
  H   H22       1.0  0.8139052474615001  0.007729233673370746  0.4235554503194591  1.0000
  H   H23       1.0  0.8139052475997698  0.49227076635378025  0.9235554501320793  1.0000
  H   H24       1.0  0.1860947521649625  0.9922707663809313  0.5764445495835183  1.0000
  H   H25       1.0  0.26935018157595014  0.3505035017070278  0.048006271715771494  1.0000
  H   H26       1.0  0.7306498179122428  0.8505035017341788  0.45199372837458573  1.0000
  H   H27       1.0  0.7306498180505125  0.6494964983472741  0.9519937281872061  1.0000
  H   H28       1.0  0.26935018171421987  0.1494964983201231  0.5480062715283918  1.0000
  H   H29       1.0  0.21887093846158917  0.40739743419629837  0.7882167279086297  1.0000
  H   H30       1.0  0.7811290613031431  0.9073974342234493  0.7117832718069679  1.0000
  H   H31       1.0  0.7811290611648734  0.5926025658580035  0.21178327199434765  1.0000
  H   H32       1.0  0.21887093832331947  0.09260256583085258  0.2882167280960095  1.0000
  H   H33       1.0  0.11665340876715187  0.5552539624761701  0.7968247837961445  1.0000
  H   H34       1.0  0.8833465909975804  0.05525396244901912  0.7031752159194532  1.0000
  H   H35       1.0  0.8833465908593107  0.4447460375781318  0.20317521610683295  1.0000
  H   H36       1.0  0.11665340862888215  0.9447460376052829  0.2968247839835243  1.0000
  H   H37       1.0  0.06298968641278618  0.41561447127186546  0.6744223435070893  1.0000
  H   H38       1.0  0.9370103144834904  0.9156144712990164  0.825577657265032  1.0000
  H   H39       1.0  0.9370103143452206  0.5843855287824364  0.32557765745241174  1.0000
  H   H40       1.0  0.06298968603581451  0.08438552875528552  0.17442234263458908  1.0000
  C   C1        1.0  0.5080172689193585  0.8554528993160971  0.7607590556195444  1.0000
  C   C2        1.0  0.4919827310840757  0.35545289928894624  0.7392409451559332  1.0000
  C   C3        1.0  0.49198273094580597  0.14454710073820468  0.239240945343313  1.0000
  C   C4        1.0  0.5080172685423869  0.6445471007653557  0.2607590547470442  1.0000
  C   C5        1.0  0.36913781995004  0.9743783465339146  0.8677096633925387  1.0000
  C   C6        1.0  0.6308621807075345  0.47437834650676364  0.6322903363197027  1.0000
  C   C7        1.0  0.6308621805692648  0.025621653520387325  0.1322903365070824  1.0000
  C   C8        1.0  0.36913781981177024  0.5256216535475383  0.3677096635799184  1.0000
  C   C9        1.0  0.32816345592684815  0.84125112336137  0.9115950542121061  1.0000
  C   C10       1.0  0.6718365447307264  0.34125112333421903  0.5884049455001351  1.0000
  C   C11       1.0  0.6718365445924566  0.15874887669293195  0.08840494568751493  1.0000
  C   C12       1.0  0.3281634557885785  0.6587488767200829  0.41159505439948585  1.0000
  C   C13       1.0  0.3845475240820509  0.7208603139680277  0.8811966701327852  1.0000
  C   C14       1.0  0.6154524756826815  0.22086031394087685  0.6188033295828125  1.0000
  C   C15       1.0  0.615452476437254  0.2791396860862741  0.11880332976683589  1.0000
  C   C16       1.0  0.38454752394378106  0.7791396861134251  0.3811966703201649  1.0000
  C   C17       1.0  0.18165469785532162  0.3923064716792572  0.06171466064355688  1.0000
  C   C18       1.0  0.8183453025257134  0.8923064717064082  0.4382853394434439  1.0000
  C   C19       1.0  0.8183453026639833  0.6076935283750448  0.9382853392560642  1.0000
  C   C20       1.0  0.18165469799359135  0.10769352834789377  0.5617146604561771  1.0000
  C   C21       1.0  0.123188791920285  0.4407994788889671  0.7789941368128706  1.0000
  C   C22       1.0  0.8768112080831493  0.9407994789161181  0.721005863962607  1.0000
  C   C23       1.0  0.8768112079448795  0.5592005211653347  0.22100586414998674  1.0000
  C   C24       1.0  0.12318879154331336  0.05920052113818381  0.2789941359403704  1.0000
  N   N1        1.0  0.47342015030980933  0.7276065063814066  0.8100685145758959  1.0000
  N   N2        1.0  0.526579849454923  0.2276065063542556  0.6899314851397019  1.0000
  N   N3        1.0  0.5265798493166532  0.27239349367289534  0.18993148532708154  1.0000
  N   N4        1.0  0.4734201501715396  0.7723934937000463  0.31006851476327557  1.0000
  N   N5        1.0  0.4562103328351532  0.9765147012137115  0.7942017456568926  1.0000
  N   N6        1.0  0.5437896669295791  0.47651470118656053  0.705798254058705  1.0000
  N   N7        1.0  0.5437896667913094  0.023485298840590436  0.2057982542460848  1.0000
  N   N8        1.0  0.4562103326968835  0.5234852988677414  0.29420174584427233  1.0000
  N   N9        1.0  0.3242754198104819  0.09885412188990673  0.8973879285618922  1.0000
  N   N10       1.0  0.6757245808470926  0.5988541219170577  0.6026120711503491  1.0000
  N   N11       1.0  0.6757245807088229  0.9011458781643953  0.10261207133772882  1.0000
  N   N12       1.0  0.3242754196722122  0.4011458781372442  0.397387928749272  1.0000
  O   O1        1.0  0.5844139965854366  0.8558887241194065  0.6856899072346162  1.0000
  O   O2        1.0  0.4155860034179978  0.35588872409225564  0.8143100935408615  1.0000
  O   O3        1.0  0.41558600304102616  0.14411127593489534  0.3143100926683613  1.0000
  O   O4        1.0  0.5844139962084648  0.6441112759620462  0.18568990636211596  1.0000
  O   O5        1.0  0.06493040250435711  0.19352476698275983  0.8839120997979989  1.0000
  O   O6        1.0  0.9350695972603752  0.6935247670099107  0.616087899917599  1.0000
  O   O7        1.0  0.9350695971221056  0.8064752330715421  0.11608790010497871  1.0000
  O   O8        1.0  0.06493040325892958  0.3064752330443911  0.3839120999820221  1.0000
  S   S1        1.0  0.059426317151388554  0.3528653639632601  0.9071703887500703  1.0000
  S   S2        1.0  0.9405736826133438  0.852865363990411  0.5928296109655274  1.0000
  S   S3        1.0  0.9405736824750741  0.6471346360910418  0.0928296111529071  1.0000
  S   S4        1.0  0.05942631701311883  0.14713463606389082  0.4071703889374501  1.0000
  I   I1        1.0  0.18456344689001794  0.831058609915315  0.012699408077854945  1.0000
  I   I2        1.0  0.8154365534910172  0.33105860988816405  0.4873005920091459  1.0000
  I   I3        1.0  0.8154365536292869  0.1689413901389869  0.9873005918217662  1.0000
  I   I4        1.0  0.1845634461354454  0.6689413901661379  0.5126994078938315  1.0000
