data_image0
_chemical_formula_structural       H72C48N20O24S4Br4
_chemical_formula_sum              "H72 C48 N20 O24 S4 Br4"
_cell_length_a       6.6472732586453915
_cell_length_b       10.89684058065422
_cell_length_c       22.87020025241848
_cell_angle_alpha    90.0
_cell_angle_beta     90.0
_cell_angle_gamma    90.0

_space_group_name_H-M_alt    "P 1"
_space_group_IT_number       1

loop_
  _space_group_symop_operation_xyz
  'x, y, z'

loop_
  _atom_site_type_symbol
  _atom_site_label
  _atom_site_symmetry_multiplicity
  _atom_site_fract_x
  _atom_site_fract_y
  _atom_site_fract_z
  _atom_site_occupancy
  H   H1        1.0  0.284498785654764  0.1043171772208999  0.22014170162185578  1.0000
  H   H2        1.0  0.215501214447128  0.8956828227190625  0.7201417017876067  1.0000
  H   H3        1.0  0.71550121454902  0.6043171771908811  0.27985829810664503  1.0000
  H   H4        1.0  0.7844987857566561  0.39568282274908134  0.779858298272396  1.0000
  H   H5        1.0  0.40737058559735323  0.2677206891673964  0.3002031440137462  1.0000
  H   H6        1.0  0.09262941450453875  0.732279310772566  0.8002031441794972  1.0000
  H   H7        1.0  0.5926294146064308  0.7677206891373776  0.19979685615200485  1.0000
  H   H8        1.0  0.9073705856992453  0.2322793108025848  0.6997968558805056  1.0000
  H   H9        1.0  0.9965064429064672  0.10825991912686807  0.18138429503088088  1.0000
  H   H10       1.0  0.5034935573992089  0.8917400808130943  0.6813842947593817  1.0000
  H   H11       1.0  0.0034935572973168855  0.6082599190968493  0.3186157051348702  1.0000
  H   H12       1.0  0.4965064428045751  0.3917400808431131  0.818615704863371  1.0000
  H   H13       1.0  0.10958824192349348  0.7858000754091892  0.03548516458285842  1.0000
  H   H14       1.0  0.39041175817839857  0.21419992453077313  0.5354851643113593  1.0000
  H   H15       1.0  0.8904117582802905  0.28580007543920805  0.4645148355828926  1.0000
  H   H16       1.0  0.6095882420253855  0.7141999245007543  0.9645148357486437  1.0000
  H   H17       1.0  0.2752127855765035  0.9434642292787188  0.1588149128521911  1.0000
  H   H18       1.0  0.2247872145253885  0.05653577066124364  0.6588149125806919  1.0000
  H   H19       1.0  0.7247872146272805  0.4434642293087376  0.3411850873135599  1.0000
  H   H20       1.0  0.7752127841740193  0.5565357706312248  0.8411850870420609  1.0000
  H   H21       1.0  0.3226449337268643  0.8309684107956697  0.10653388790254907  1.0000
  H   H22       1.0  0.17735506637502768  0.1690315891442927  0.6065338880683001  1.0000
  H   H23       1.0  0.6773550664769197  0.3309684108256885  0.39346611182595176  1.0000
  H   H24       1.0  0.8226449338287564  0.6690315891142739  0.8934661119917028  1.0000
  H   H25       1.0  0.43530250787217745  0.22832530508128487  0.14091697074926987  1.0000
  H   H26       1.0  0.06469749222971462  0.7716746948586776  0.640916970915021  1.0000
  H   H27       1.0  0.5646974923316066  0.728325305051266  0.3590830294164812  1.0000
  H   H28       1.0  0.9353025079740694  0.27167469488869633  0.859083029144982  1.0000
  H   H29       1.0  0.699972621698448  0.03928762257567112  0.20390576595440424  1.0000
  H   H30       1.0  0.8000273786072282  0.9607123773642912  0.7039057656829051  1.0000
  H   H31       1.0  0.3000273785053361  0.5392876225456523  0.2960942342113468  1.0000
  H   H32       1.0  0.1999726215965559  0.46071237739431004  0.7960942343770978  1.0000
  H   H33       1.0  0.6899789630334305  0.1770856052924055  0.2885097540543942  1.0000
  H   H34       1.0  0.8100210372722455  0.8229143946475568  0.7885097537828951  1.0000
  H   H35       1.0  0.3100210371703535  0.6770856052623867  0.21149024611135683  1.0000
  H   H36       1.0  0.1899789629315385  0.3229143946775757  0.7114902462771079  1.0000
  H   H37       1.0  0.7391006866778322  0.3889201790768569  0.2226325862390106  1.0000
  H   H38       1.0  0.760899313627844  0.6110798208631055  0.7226325864047616  1.0000
  H   H39       1.0  0.2608993135259519  0.8889201790468381  0.2773674139267404  1.0000
  H   H40       1.0  0.23910068657594014  0.11107982089312435  0.7773674136552412  1.0000
  H   H41       1.0  0.08932037948459398  0.323946920565857  0.19754255625821407  1.0000
  H   H42       1.0  0.41067962061729807  0.6760530793741053  0.6975425564239651  1.0000
  H   H43       1.0  0.9106796207191901  0.8239469205358382  0.3024574439075369  1.0000
  H   H44       1.0  0.589320379586486  0.17605307940412418  0.8024574436360378  1.0000
  H   H45       1.0  0.02990132679463588  0.29356170408505194  0.2718051049571656  1.0000
  H   H46       1.0  0.47009867330725613  0.7064382958549105  0.7718051051229166  1.0000
  H   H47       1.0  0.9700986734091481  0.7935617040550331  0.22819489477133525  1.0000
  H   H48       1.0  0.5299013268965279  0.2064382958849292  0.7281948949370862  1.0000
  H   H49       1.0  0.47595472863781924  0.010610945360187888  0.32892703461153544  1.0000
  H   H50       1.0  0.024045271464072763  0.9893890545797746  0.8289270347772865  1.0000
  H   H51       1.0  0.5240452715659648  0.510610945330169  0.1710729651169654  1.0000
  H   H52       1.0  0.975954727235335  0.4893890546097933  0.6710729652827164  1.0000
  H   H53       1.0  0.42967800312485505  0.9312088338719905  0.3966264986700659  1.0000
  H   H54       1.0  0.07032199697703698  0.0687911660679719  0.896626498835817  1.0000
  H   H55       1.0  0.5703219970789289  0.43120883390200926  0.10337350149568511  1.0000
  H   H56       1.0  0.9296780017223708  0.5687911660379531  0.603373501224186  1.0000
  H   H57       1.0  0.6300967820982185  0.042485194361924425  0.39270801789548143  1.0000
  H   H58       1.0  0.8699032167030814  0.957514805578038  0.8927080176239822  1.0000
  H   H59       1.0  0.3699032181055656  0.5424851943319056  0.10729198227026965  1.0000
  H   H60       1.0  0.13009678199632643  0.4575148056080568  0.6072919824360207  1.0000
  H   H61       1.0  0.9668599830225298  0.14381083291079183  0.37873370037868553  1.0000
  H   H62       1.0  0.5331400172831462  0.8561891670291705  0.8787337005444366  1.0000
  H   H63       1.0  0.03314001718125422  0.643810832880773  0.12126629934981525  1.0000
  H   H64       1.0  0.4668599829206378  0.35618916705918935  0.6212662995155662  1.0000
  H   H65       1.0  0.053853418698323566  0.9897538823452698  0.3877102697892787  1.0000
  H   H66       1.0  0.44614658140356844  0.01024611759469246  0.8877102699550298  1.0000
  H   H67       1.0  0.9461465800010842  0.4897538823752887  0.1122897299392221  1.0000
  H   H68       1.0  0.5538534188002157  0.5102461175646736  0.6122897301049731  1.0000
  H   H69       1.0  0.10655058283918574  0.07243701366076241  0.3201507179293597  1.0000
  H   H70       1.0  0.39344941726270627  0.9275629871968972  0.8201507180951108  1.0000
  H   H71       1.0  0.8934494173645983  0.5724370136307436  0.17984928179914111  1.0000
  H   H72       1.0  0.6065505829410778  0.4275629863092188  0.6798492819648921  1.0000
  C   C1        1.0  0.050401145998362915  0.9189875942370426  0.09748251634850641  1.0000
  C   C2        1.0  0.44959885410352907  0.08101240570291982  0.5974825165142574  1.0000
  C   C3        1.0  0.9495988542054211  0.4189875942670614  0.4025174833799944  1.0000
  C   C4        1.0  0.5504011461002549  0.581012405672901  0.9025174835457455  1.0000
  C   C5        1.0  0.7659630500939539  0.026433855562811807  0.08426415373412433  1.0000
  C   C6        1.0  0.7340369502117223  0.9735661443771505  0.5842641538998754  1.0000
  C   C7        1.0  0.23403695010983022  0.526433855532793  0.41573584599437646  1.0000
  C   C8        1.0  0.26596304999206183  0.4735661444071694  0.9157358461601274  1.0000
  C   C9        1.0  0.7164169584583114  0.9693786067452785  0.03127378825309433  1.0000
  C   C10       1.0  0.7835830403429884  0.030621393194683856  0.5312737884188453  1.0000
  C   C11       1.0  0.2835830402410964  0.46937860677529736  0.4687262114754065  1.0000
  C   C12       1.0  0.2164169583564194  0.5306213931646651  0.9687262116411575  1.0000
  C   C13       1.0  0.8403721424773164  0.8719191998521073  0.011566763171303058  1.0000
  C   C14       1.0  0.6596278578283598  0.12808080008785508  0.5115667628998039  1.0000
  C   C15       1.0  0.1596278577264677  0.37191919988212613  0.48843323699444796  1.0000
  C   C16       1.0  0.34037214237542435  0.6280808000578363  0.988433237160199  1.0000
  C   C17       1.0  0.48412071909554594  0.09956223659233017  0.04613226156113041  1.0000
  C   C18       1.0  0.015879281006346082  0.9004377633476323  0.5461322617268815  1.0000
  C   C19       1.0  0.5158792811082381  0.5995622365623113  0.45386773860462065  1.0000
  C   C20       1.0  0.984120719197438  0.400437763377651  0.9538677383331214  1.0000
  C   C21       1.0  0.5815860578579285  0.18161237244430584  0.14635030489713594  1.0000
  C   C22       1.0  0.9184139424477475  0.8183876274956566  0.6463503046256367  1.0000
  C   C23       1.0  0.4184139423458555  0.6816123724142871  0.3536496952686151  1.0000
  C   C24       1.0  0.08158605775603653  0.31838762752567534  0.853649694997116  1.0000
  C   C25       1.0  0.5787951706357323  0.10754691337602745  0.20388867253171072  1.0000
  C   C26       1.0  0.9212048296699438  0.892453086563935  0.7038886722602116  1.0000
  C   C27       1.0  0.4212048295680517  0.6075469133460086  0.2961113276340403  1.0000
  C   C28       1.0  0.0787951705338403  0.3924530865939538  0.7961113277997913  1.0000
  C   C29       1.0  0.6240759915510646  0.21177886130563633  0.24753816921219715  1.0000
  C   C30       1.0  0.8759240087546114  0.788221138634326  0.7475381693779481  1.0000
  C   C31       1.0  0.3759240086527193  0.7117788612756175  0.25246183051630366  1.0000
  C   C32       1.0  0.12407599144917271  0.28822113866434484  0.7524618306820547  1.0000
  C   C33       1.0  0.7750222865141927  0.29217353107398164  0.21395059754592943  1.0000
  C   C34       1.0  0.7249777137914833  0.7078264688659808  0.7139505977116805  1.0000
  C   C35       1.0  0.22497771368959138  0.7921735310439628  0.2860494021825714  1.0000
  C   C36       1.0  0.27502228641230064  0.20782646889599957  0.7860494023483223  1.0000
  C   C37       1.0  0.9942837179747392  0.2676135149831587  0.2265205889245401  1.0000
  C   C38       1.0  0.5057162808265606  0.7323864849568037  0.7265205890902912  1.0000
  C   C39       1.0  0.005716282229044895  0.7676135149531399  0.2734794108039607  1.0000
  C   C40       1.0  0.49428371787284714  0.2323864849868225  0.7734794109697118  1.0000
  C   C41       1.0  0.4803717608339627  0.017473986940586054  0.3767856710869311  1.0000
  C   C42       1.0  0.019628239267929327  0.9825260129993764  0.876785670815432  1.0000
  C   C43       1.0  0.5196282393698213  0.5174739869105672  0.12321432907881986  1.0000
  C   C44       1.0  0.9803717609358547  0.48252601302939513  0.6232143288073206  1.0000
  C   C45       1.0  0.08691644792074303  0.07899668749199217  0.3676623626901044  1.0000
  C   C46       1.0  0.413083552181149  0.9210033124479703  0.8676623628558554  1.0000
  C   C47       1.0  0.9130835522830411  0.5789966874619733  0.13233763703839646  1.0000
  C   C48       1.0  0.5869164480226351  0.42100331247798906  0.6323376372041475  1.0000
  N   N1        1.0  0.007117053588623017  0.8541498263748296  0.047459730479850935  1.0000
  N   N2        1.0  0.49288294651326897  0.14585017356513275  0.5474597306456019  1.0000
  N   N3        1.0  0.9928829466151611  0.35414982640484843  0.45254026968590005  1.0000
  N   N4        1.0  0.5071170536905151  0.6458501735351139  0.9525402694144008  1.0000
  N   N5        1.0  0.22088495129794206  0.8885593047208448  0.12570412538018713  1.0000
  N   N6        1.0  0.27911504880394994  0.11144069521911766  0.6257041255459381  1.0000
  N   N7        1.0  0.779115048905842  0.38855930475086353  0.3742958743483137  1.0000
  N   N8        1.0  0.7208849513998341  0.6114406951890988  0.8742958745140648  1.0000
  N   N9        1.0  0.9284172546951442  0.006873964012374578  0.1182942497284827  1.0000
  N   N10       1.0  0.5715827456105318  0.9931260359275877  0.6182942498942336  1.0000
  N   N11       1.0  0.07158274550863981  0.5068739639823557  0.3817057504372683  1.0000
  N   N12       1.0  0.4284172545932522  0.4931260359576066  0.8817057501657691  1.0000
  N   N13       1.0  0.5402273549277552  0.017122039055177077  0.007957258265841179  1.0000
  N   N14       1.0  0.959772645377921  0.9828779608847853  0.5079572584315922  1.0000
  N   N15       1.0  0.45977264527602885  0.5171220390251583  0.4920427414626596  1.0000
  N   N16       1.0  0.04022735482586319  0.4828779609148041  0.9920427416284107  1.0000
  N   N17       1.0  0.6119081316101779  0.10939578322512553  0.09430729535356472  1.0000
  N   N18       1.0  0.8880918686954983  0.8906042167148368  0.5943072950820655  1.0000
  N   N19       1.0  0.38809186859360617  0.6093957841128038  0.4056927048121863  1.0000
  N   N20       1.0  0.1119081315082858  0.3906042167448557  0.9056927045406872  1.0000
  O   O1        1.0  0.8146648767533218  0.8044844076698139  0.9675580998754035  1.0000
  O   O2        1.0  0.6853351235523543  0.19551559227014864  0.4675580997096525  1.0000
  O   O3        1.0  0.18533512345046224  0.30448440769983254  0.5324419001845994  1.0000
  O   O4        1.0  0.31466487665142984  0.6955155922401298  0.03244190001884832  1.0000
  O   O5        1.0  0.7422024652865546  0.2669714444721501  0.15168907625254147  1.0000
  O   O6        1.0  0.7577975350191214  0.7330285554678123  0.6516890764182924  1.0000
  O   O7        1.0  0.25779753491722934  0.7669714444421313  0.3483109234759593  1.0000
  O   O8        1.0  0.24220246518466274  0.23302855549783108  0.8483109236417103  1.0000
  O   O9        1.0  0.39760125199646057  0.0445886104695889  0.21397514521030506  1.0000
  O   O10       1.0  0.1023987466010552  0.9554113894703735  0.713975145376056  1.0000
  O   O11       1.0  0.6023987467029471  0.5445886104395701  0.28602485451819576  1.0000
  O   O12       1.0  0.8976012520983526  0.45541138950039234  0.7860248546839468  1.0000
  O   O13       1.0  0.44361390832922115  0.2773745818917483  0.25785134782002583  1.0000
  O   O14       1.0  0.05638609177267087  0.7226254189659113  0.7578513475485267  1.0000
  O   O15       1.0  0.5563860918745629  0.7773745818617295  0.24214865234572522  1.0000
  O   O16       1.0  0.9436139084311131  0.22262541807823288  0.7421486525114762  1.0000
  O   O17       1.0  0.042090309682411925  0.14008556504993425  0.22027579358284222  1.0000
  O   O18       1.0  0.4579096904194801  0.8599144348900281  0.7202757937485932  1.0000
  O   O19       1.0  0.9579096905213722  0.6400855650199154  0.27972420614565857  1.0000
  O   O20       1.0  0.5420903082799277  0.35991443492004693  0.7797242063114096  1.0000
  O   O21       1.0  0.36949167341745726  0.2535730131636107  0.36923263446751053  1.0000
  O   O22       1.0  0.13050832668443477  0.7464269867763517  0.8692326346332615  1.0000
  O   O23       1.0  0.6305083267863268  0.7535730131335918  0.13076736526099028  1.0000
  O   O24       1.0  0.8694916735193493  0.24642698680637046  0.6307673654267413  1.0000
  S   S1        1.0  0.3126275751184461  0.13625101505438944  0.40167077326000095  1.0000
  S   S2        1.0  0.18737242498344597  0.863748984885573  0.9016707729885017  1.0000
  S   S3        1.0  0.6873724250853379  0.6362510150243706  0.09832922690575009  1.0000
  S   S4        1.0  0.8126275752203381  0.36374898491559177  0.5983292270715012  1.0000
  Br  Br1       1.0  0.25907294359536265  0.2016376511831179  0.0371802022113943  1.0000
  Br  Br2       1.0  0.2409270565065294  0.7983623487568444  0.5371802023771454  1.0000
  Br  Br3       1.0  0.7409270566084214  0.7016376511530991  0.4628197975171065  1.0000
  Br  Br4       1.0  0.7590729436972548  0.29836234878686324  0.9628197976828575  1.0000
