data_image0
_chemical_formula_structural       H42C52N14O6I4
_chemical_formula_sum              "H42 C52 N14 O6 I4"
_cell_length_a       10.560690826208058
_cell_length_b       10.675785521800925
_cell_length_c       12.41710188705318
_cell_angle_alpha    80.88432157323257
_cell_angle_beta     82.82132146793677
_cell_angle_gamma    72.90257624322801

_space_group_name_H-M_alt    "P 1"
_space_group_IT_number       1

loop_
  _space_group_symop_operation_xyz
  'x, y, z'

loop_
  _atom_site_type_symbol
  _atom_site_label
  _atom_site_symmetry_multiplicity
  _atom_site_fract_x
  _atom_site_fract_y
  _atom_site_fract_z
  _atom_site_occupancy
  H   H1        1.0  0.5811272400492138  0.9304666734859356  0.8103846058310585  1.0000
  H   H2        1.0  0.4188727599568113  0.06953332612734332  0.1896153943539339  1.0000
  H   H3        1.0  0.15364271288796746  0.05778963769849807  0.8665690050607249  1.0000
  H   H4        1.0  0.846357286822341  0.9422103628937202  0.13343099513091514  1.0000
  H   H5        1.0  0.16692162707645564  0.2594541485001915  0.4859334066691265  1.0000
  H   H6        1.0  0.8330783729295694  0.7405458511130874  0.5140665935158659  1.0000
  H   H7        1.0  0.7073125243732933  0.45218125619352273  0.5765016963264126  1.0000
  H   H8        1.0  0.29268747563273184  0.5478187434197562  0.42349830385857984  1.0000
  H   H9        1.0  0.5755991601388721  0.5812413658519167  0.42305694782077297  1.0000
  H   H10       1.0  0.4244008395714365  0.4187586347403016  0.5769430523708671  1.0000
  H   H11       1.0  0.9289763980417998  0.4979697692414406  0.20041767989270645  1.0000
  H   H12       1.0  0.07102360166850877  0.5020302313507777  0.7995823202989336  1.0000
  H   H13       1.0  0.06013195475891129  0.3709381565590778  0.35299963907784265  1.0000
  H   H14       1.0  0.9398680452471138  0.6290618430542011  0.6470003611071496  1.0000
  H   H15       1.0  0.506342343891726  0.18801679346247993  0.4493120160796061  1.0000
  H   H16       1.0  0.4936576558185824  0.8119832071297384  0.5506879841120338  1.0000
  H   H17       1.0  0.5898241829407191  0.28638469787610904  0.30570221881404125  1.0000
  H   H18       1.0  0.4101758170653059  0.7136153017371699  0.6942977813709511  1.0000
  H   H19       1.0  0.6893748193424128  0.34547522426874927  0.12144261153372876  1.0000
  H   H20       1.0  0.31062518036789577  0.6545247763234691  0.8785573886579112  1.0000
  H   H21       1.0  0.07367348357853021  0.09472767138281758  0.21167125891369357  1.0000
  H   H22       1.0  0.9263265164274949  0.9052723282304614  0.7883287412712989  1.0000
  H   H23       1.0  0.9751058242276325  0.036287292026406785  0.39582923150244986  1.0000
  H   H24       1.0  0.02489417577839247  0.9637127075868723  0.6041707686825425  1.0000
  H   H25       1.0  0.1684359332669238  0.8831937903108111  0.1713915218659717  1.0000
  H   H26       1.0  0.8315640665268278  0.11680621041618013  0.82860847750723  1.0000
  H   H27       1.0  0.3391255348406265  0.8770770030892279  0.18242477513302274  1.0000
  H   H28       1.0  0.6608744651653986  0.12292299652405121  0.8175752250519697  1.0000
  H   H29       1.0  0.30113226699777335  0.7486831923659941  0.1271993872508998  1.0000
  H   H30       1.0  0.6988677330082517  0.2513168072472847  0.8728006129340926  1.0000
  H   H31       1.0  0.5632833339909876  0.5046477272357032  0.7963479621933619  1.0000
  H   H32       1.0  0.43671666571932094  0.4953522733565151  0.203652037998278  1.0000
  H   H33       1.0  0.5685417985729571  0.5819768901093392  0.9139843160842729  1.0000
  H   H34       1.0  0.43145820237851706  0.4180231095074042  0.08601568410355011  1.0000
  H   H35       1.0  0.7087465701809404  0.45757334146638634  0.871203011883286  1.0000
  H   H36       1.0  0.29125342952936795  0.542426659125832  0.12879698830835407  1.0000
  H   H37       1.0  0.8028380842847986  0.7741512568111554  0.7672023492515195  1.0000
  H   H38       1.0  0.19716191542550987  0.22584874378106307  0.23279765094012042  1.0000
  H   H39       1.0  0.853885903727677  0.6184328232514197  0.8543765567284622  1.0000
  H   H40       1.0  0.1461140959826315  0.38156717734079865  0.14562344346317774  1.0000
  H   H41       1.0  0.7143298986728973  0.7409173269252194  0.897256203280559  1.0000
  H   H42       1.0  0.28567010133312765  0.2590826726880597  0.1027437969044333  1.0000
  C   C1        1.0  0.36846868776479735  0.9839271524335741  0.8517753484082622  1.0000
  C   C2        1.0  0.6315313122412277  0.01607284717970486  0.1482246517767301  1.0000
  C   C3        1.0  0.48373958702171105  0.9845529177630773  0.7833803443941159  1.0000
  C   C4        1.0  0.5162604130677573  0.015447081984974407  0.2166196549724381  1.0000
  C   C5        1.0  0.4710198445495632  0.05717590107624655  0.6791144537580754  1.0000
  C   C6        1.0  0.528980155456462  0.9428240985370322  0.32088554642691697  1.0000
  C   C7        1.0  0.24219208795610156  0.12456743875842517  0.709011114474784  1.0000
  C   C8        1.0  0.7578079117542069  0.875432561833793  0.29098888571685594  1.0000
  C   C9        1.0  0.2451239648564648  0.056028627831658954  0.8152010527376011  1.0000
  C   C10       1.0  0.7548760361784524  0.9439713719198574  0.18479894663178353  1.0000
  C   C11       1.0  0.11766298747305405  0.20359292033562845  0.6649712555665132  1.0000
  C   C12       1.0  0.8823370126164142  0.7964070794124234  0.33502874380004083  1.0000
  C   C13       1.0  0.09768666309167422  0.2609435698975058  0.5582102585453217  1.0000
  C   C14       1.0  0.9023133367020776  0.7390564308294855  0.44178974082788003  1.0000
  C   C15       1.0  0.8908625589405211  0.4014075887532856  0.4738960963529098  1.0000
  C   C16       1.0  0.10913744076978754  0.5985924118389327  0.5261039038387302  1.0000
  C   C17       1.0  0.7547057631607558  0.46123906988296043  0.49383713225163584  1.0000
  C   C18       1.0  0.24529423684526933  0.5387609297303184  0.5061628679333566  1.0000
  C   C19       1.0  0.6813452013933852  0.5336508811984289  0.4074356237338485  1.0000
  C   C20       1.0  0.3186547986126399  0.4663491184148501  0.5925643764511438  1.0000
  C   C21       1.0  0.7438999022524123  0.5454527995288382  0.3017315441573168  1.0000
  C   C22       1.0  0.25610009745789625  0.45454720106338015  0.6982684560343231  1.0000
  C   C23       1.0  0.8802907151118547  0.4877002504353574  0.2826758953332478  1.0000
  C   C24       1.0  0.11970928459845377  0.5122997501568609  0.7173241048583923  1.0000
  C   C25       1.0  0.9540217251408717  0.41571589704578454  0.3686612742176514  1.0000
  C   C26       1.0  0.04597827465288005  0.5842841036812066  0.6313387251555501  1.0000
  C   C27       1.0  0.5865403750399197  0.06799342024302983  0.6046146795365422  1.0000
  C   C28       1.0  0.4134596246703889  0.9320065803491885  0.3953853206550978  1.0000
  C   C29       1.0  0.5871850322612325  0.13454800447902918  0.49943260236109926  1.0000
  C   C30       1.0  0.41281496774479254  0.8654519951342496  0.500567397823893  1.0000
  C   C31       1.0  0.7761036641550763  0.15640157385541104  0.36204397568497604  1.0000
  C   C32       1.0  0.22389633593439207  0.8435984258926407  0.637956023681578  1.0000
  C   C33       1.0  0.6957881204267796  0.2442222631917006  0.28546762377977897  1.0000
  C   C34       1.0  0.30421187957924556  0.7557777364215783  0.7145323764052133  1.0000
  C   C35       1.0  0.7517110378680036  0.27700020150706933  0.18114473504778755  1.0000
  C   C36       1.0  0.2482889622214646  0.7229997982409824  0.8188552643187664  1.0000
  C   C37       1.0  0.8873190579852506  0.22323425931912308  0.1542000440208518  1.0000
  C   C38       1.0  0.11268094202077446  0.7767657402941557  0.8457999561641406  1.0000
  C   C39       1.0  0.9678836450138519  0.13726422858523082  0.2315200103570995  1.0000
  C   C40       1.0  0.03211635499217301  0.8627357710280481  0.768479989827893  1.0000
  C   C41       1.0  0.9123873458211295  0.10380913459777331  0.3359142418097004  1.0000
  C   C42       1.0  0.08761265418489565  0.8961908650155055  0.6640857583752919  1.0000
  C   C43       1.0  0.3815440202558363  0.9035420255755752  0.9614410265353579  1.0000
  C   C44       1.0  0.618455979833632  0.09645797417247667  0.03855897283119612  1.0000
  C   C45       1.0  0.27040314850030783  0.8544875201049108  0.13435881721485007  1.0000
  C   C46       1.0  0.7295968515891604  0.1455124796431411  0.8656411821517039  1.0000
  C   C47       1.0  0.6804362388832266  0.6437744313067362  0.7706940051496591  1.0000
  C   C48       1.0  0.31956376206824755  0.3562255683100071  0.2293059950381639  1.0000
  C   C49       1.0  0.6257212539771178  0.5405326404894162  0.841132698962269  1.0000
  C   C50       1.0  0.3742787460289073  0.45946735912386283  0.1588673012227233  1.0000
  C   C51       1.0  0.7690697368695388  0.698699486978509  0.8239373687910009  1.0000
  C   C52       1.0  0.23093026321992932  0.301300512769543  0.1760626305755531  1.0000
  N   N1        1.0  0.35231394332867544  0.12385977607535337  0.6417627338203498  1.0000
  N   N2        1.0  0.6476860566773495  0.8761402235379256  0.3582372663646426  1.0000
  N   N3        1.0  0.7157962175524278  0.01330943783666545  0.6301594875189805  1.0000
  N   N4        1.0  0.28420378245359734  0.9866905617766133  0.3698405126660118  1.0000
  N   N5        1.0  0.7956917888238533  0.042012378090269885  0.5469800875891861  1.0000
  N   N6        1.0  0.20430821088645537  0.9579876225019485  0.4530199126024538  1.0000
  N   N7        1.0  0.7180751528161736  0.1162431195276503  0.4660405263869968  1.0000
  N   N8        1.0  0.2819248468941349  0.8837568810645682  0.5339594738046431  1.0000
  N   N9        1.0  0.9986266634088351  0.23596871667692526  0.7268897808293133  1.0000
  N   N10       1.0  0.0013733363014732387  0.7640312839152931  0.27311021936232655  1.0000
  N   N11       1.0  0.906363122431803  0.3099164232275377  0.6648954685303008  1.0000
  N   N12       1.0  0.09363687757422219  0.6900835763857412  0.33510453165469173  1.0000
  N   N13       1.0  0.9658685678561781  0.32558639232271114  0.5609267237406116  1.0000
  N   N14       1.0  0.03413143185413045  0.674413608269507  0.4390732764510284  1.0000
  O   O1        1.0  0.4851477715960085  0.8206690695207993  0.9879125650280902  1.0000
  O   O2        1.0  0.5148522284100165  0.1793309300924795  0.012087435156902174  1.0000
  O   O3        1.0  0.2683772035780058  0.9307753231469595  0.026655199625570683  1.0000
  O   O4        1.0  0.7316227962157458  0.06922467758003173  0.973344799747631  1.0000
  O   O5        1.0  0.6536264618639267  0.6816025657058561  0.6748172289097533  1.0000
  O   O6        1.0  0.3463735381420983  0.318397433907423  0.32518277127523904  1.0000
  I   I1        1.0  0.6349983075021767  0.649896759204442  0.16956414540150744  1.0000
  I   I2        1.0  0.3650016922081318  0.3501032413877764  0.8304358547901326  1.0000
  I   I3        1.0  0.9661499883225304  0.2680525927538175  0.9935278828724137  1.0000
  I   I4        1.0  0.033850011766937894  0.7319474069942343  0.00647211649414032  1.0000
