data_image0
_chemical_formula_structural       H32C60N4F8Br4
_chemical_formula_sum              "H32 C60 N4 F8 Br4"
_cell_length_a       6.179432481269899
_cell_length_b       7.272414112051941
_cell_length_c       26.103309673450884
_cell_angle_alpha    90.0
_cell_angle_beta     96.43761692115787
_cell_angle_gamma    90.0

_space_group_name_H-M_alt    "P 1"
_space_group_IT_number       1

loop_
  _space_group_symop_operation_xyz
  'x, y, z'

loop_
  _atom_site_type_symbol
  _atom_site_label
  _atom_site_symmetry_multiplicity
  _atom_site_fract_x
  _atom_site_fract_y
  _atom_site_fract_z
  _atom_site_occupancy
  H   H1        1.0  0.7451793300205174  0.6417383014899836  0.3379850328026761  1.0000
  H   H2        1.0  0.2548206691623073  0.14173830231859022  0.1620149672524836  1.0000
  H   H3        1.0  0.2548206694371774  0.35826169822786236  0.6620149669786556  1.0000
  H   H4        1.0  0.7451793304683666  0.8582616973992556  0.8379850329143655  1.0000
  H   H5        1.0  0.9066072753127401  0.6652572289554246  0.4272970284650604  1.0000
  H   H6        1.0  0.09339272548941216  0.16525722840897214  0.07270297159238923  1.0000
  H   H7        1.0  0.09339272431793377  0.3347427707624212  0.5727029717017887  1.0000
  H   H8        1.0  0.9066072755876103  0.8347427713088738  0.9272970281912326  1.0000
  H   H9        1.0  0.8807013188956287  0.6133006029742636  0.5213834795160761  1.0000
  H   H10       1.0  0.11929868100991524  0.1133006024278111  0.978616520376945  1.0000
  H   H11       1.0  0.11929868056206613  0.3866993967435822  0.4786165202652557  1.0000
  H   H12       1.0  0.8807013186207586  0.8866993972900348  0.02138347978990403  1.0000
  H   H13       1.0  0.14618702937806832  0.43632648541581515  0.3881014055459738  1.0000
  H   H14       1.0  0.8538129714240839  0.9363264859622678  0.11189859451147578  1.0000
  H   H15       1.0  0.8538129702526055  0.5636735143020306  0.6118985946208753  1.0000
  H   H16       1.0  0.14618702965293856  0.06367351375557816  0.888101405272146  1.0000
  H   H17       1.0  0.5706813231222982  0.6932658691210667  0.26841776634923004  1.0000
  H   H18       1.0  0.42931867606052637  0.1932658699496734  0.2315822337059297  1.0000
  H   H19       1.0  0.4293186765083757  0.3067341305967791  0.7315822338176191  1.0000
  H   H20       1.0  0.5706813235701476  0.8067341311432317  0.7684177664609194  1.0000
  H   H21       1.0  0.9026927097224031  0.33505046088643264  0.22650576545073792  1.0000
  H   H22       1.0  0.09730729107974909  0.835050460057826  0.2734942346067117  1.0000
  H   H23       1.0  0.09730728973529174  0.6649495402064725  0.7734942343305939  1.0000
  H   H24       1.0  0.9026927101702523  0.16494953966001988  0.7265057655624273  1.0000
  H   H25       1.0  0.39206680158538937  0.6627739270254546  0.17963053990698877  1.0000
  H   H26       1.0  0.6079331992167628  0.16277392647900207  0.3203694601504608  1.0000
  H   H27       1.0  0.6079331980452845  0.33722607269239124  0.8203694602598604  1.0000
  H   H28       1.0  0.39206680186025966  0.8372260732388438  0.6796305396331609  1.0000
  H   H29       1.0  0.06980036207866162  0.3362427926027509  0.3166763854814321  1.0000
  H   H30       1.0  0.9301996371041631  0.8362427931492034  0.1833236145737276  1.0000
  H   H31       1.0  0.9301996375520123  0.663757207115095  0.6833236146854169  1.0000
  H   H32       1.0  0.06980036252651088  0.1637572065686424  0.8166763855931216  1.0000
  C   C1        1.0  0.5636594506057262  0.06737141511070494  0.4544098282513655  1.0000
  C   C2        1.0  0.43634054857709853  0.5673714156571575  0.0455901718037943  1.0000
  C   C3        1.0  0.4363405490249478  0.9326285846071409  0.5455901719154838  1.0000
  C   C4        1.0  0.5636594510535754  0.43262858543574756  0.9544098283630549  1.0000
  C   C5        1.0  0.7020311889242807  0.08004914475858195  0.5002019913315897  1.0000
  C   C6        1.0  0.2979688109812635  0.5800491439299753  0.9997980085614316  1.0000
  C   C7        1.0  0.29796881215274185  0.9199508549592639  0.49979800845203204  1.0000
  C   C8        1.0  0.7020311886494104  0.4199508557878706  0.00020199160541760602  1.0000
  C   C9        1.0  0.35751341413504834  0.9886259183295322  0.45346392419911596  1.0000
  C   C10       1.0  0.6424865866671039  0.4886259191581388  0.04653607585833365  1.0000
  C   C11       1.0  0.6424865853226466  0.011374081388313714  0.5465360755822158  1.0000
  C   C12       1.0  0.3575134145828975  0.5113740819347662  0.9534639243108053  1.0000
  C   C13       1.0  0.6249053183791254  0.5573823929089049  0.4603024372452847  1.0000
  C   C14       1.0  0.3750946824230269  0.057382393737511556  0.039697562812164924  1.0000
  C   C15       1.0  0.37509468125154855  0.442617606808941  0.5396975629215646  1.0000
  C   C16       1.0  0.6249053186539957  0.9426176073553935  0.9603024369714569  1.0000
  C   C17       1.0  0.6499081456362924  0.599751597309596  0.3686128820979374  1.0000
  C   C18       1.0  0.3500918551658598  0.09975159676314356  0.1313871179595122  1.0000
  C   C19       1.0  0.35009185544073  0.4002484024082497  0.6313871176856843  1.0000
  C   C20       1.0  0.6499081444648142  0.9002484029547023  0.8686128822073369  1.0000
  C   C21       1.0  0.7418157824797529  0.6120249742962122  0.4187279832718727  1.0000
  C   C22       1.0  0.2581842181494204  0.1120249751248188  0.0812720164000596  1.0000
  C   C23       1.0  0.25818421697794197  0.3879750254216337  0.5812720165094591  1.0000
  C   C24       1.0  0.7418157829276022  0.8879750259680862  0.9187279833835621  1.0000
  C   C25       1.0  0.334961234682762  0.5198159788144088  0.3020260558760709  1.0000
  C   C26       1.0  0.6650387645000627  0.019815979643015513  0.19797394417908887  1.0000
  C   C27       1.0  0.665038764774933  0.48018402090343704  0.697973943905261  1.0000
  C   C28       1.0  0.33496123513061127  0.9801840214498896  0.8020260559877603  1.0000
  C   C29       1.0  0.43226174645870397  0.533254873862758  0.35603700164370444  1.0000
  C   C30       1.0  0.5677382527241207  0.033254874691364754  0.1439629984114553  1.0000
  C   C31       1.0  0.567738252998991  0.46674512585508776  0.6439629981376275  1.0000
  C   C32       1.0  0.43226174690655317  0.9667451264015403  0.8560370017553939  1.0000
  C   C33       1.0  0.7150218164143974  0.5635371208039822  0.5118358442693985  1.0000
  C   C34       1.0  0.28497818349114673  0.06353712025752967  0.9881641556236227  1.0000
  C   C35       1.0  0.28497818304329753  0.4364628802889229  0.48816415551193326  1.0000
  C   C36       1.0  0.7150218175858759  0.9364628794603161  0.011835844159999028  1.0000
  C   C37       1.0  0.3140923096843846  0.48350794328018126  0.3958666011169053  1.0000
  C   C38       1.0  0.68590768949844  0.9835079438266338  0.10413339893825445  1.0000
  C   C39       1.0  0.6859076899462894  0.5164920564376646  0.6041333990499439  1.0000
  C   C40       1.0  0.3140923099592549  0.016492055891212068  0.8958666008430775  1.0000
  C   C41       1.0  0.4243867473889009  0.6092533375756634  0.2614471779437653  1.0000
  C   C42       1.0  0.5756132532402723  0.10925333702921086  0.238552821728167  1.0000
  C   C43       1.0  0.5756132536881216  0.39074666214218245  0.7385528218398565  1.0000
  C   C44       1.0  0.42438674621742256  0.890746662688635  0.7614471780531649  1.0000
  C   C45       1.0  0.4043322227378947  0.49225408026027867  0.4482197096830337  1.0000
  C   C46       1.0  0.59566777644493  0.9922540794316721  0.05178029037212611  1.0000
  C   C47       1.0  0.5956677767198003  0.5077459208326264  0.5517802900982983  1.0000
  C   C48       1.0  0.40433222318574386  0.007745920286173833  0.948219709794723  1.0000
  C   C49       1.0  0.05236006465182492  0.412466893906519  0.23715997587332258  1.0000
  C   C50       1.0  0.9476399361503275  0.9124668930779123  0.26284002418412705  1.0000
  C   C51       1.0  0.9476399349788489  0.5875331058113269  0.7628400242935266  1.0000
  C   C52       1.0  0.05236006509967413  0.08753310663993351  0.737159975985012  1.0000
  C   C53       1.0  0.32251411992141454  0.5943148043285038  0.21119015308637892  1.0000
  C   C54       1.0  0.6774858792614102  0.09431480378205133  0.2888098469687808  1.0000
  C   C55       1.0  0.6774858797092594  0.405685195389342  0.7888098470804703  1.0000
  C   C56       1.0  0.3225141201962847  0.9056851959357946  0.711190152812551  1.0000
  C   C57       1.0  0.14481738562114935  0.4164204531451701  0.28818664283909146  1.0000
  C   C58       1.0  0.8551826151810029  0.9164204536916227  0.21181335721835817  1.0000
  C   C59       1.0  0.8551826156288521  0.5835795465726756  0.7118133573300477  1.0000
  C   C60       1.0  0.14481738444967102  0.08357954602622314  0.7881866429484911  1.0000
  N   N1        1.0  0.13743596448151146  0.4994930959693478  0.19858952462031315  1.0000
  N   N2        1.0  0.8625640347013133  0.9994930951407413  0.3014104754348466  1.0000
  N   N3        1.0  0.8625640349761835  0.5005069051235572  0.8014104751610188  1.0000
  N   N4        1.0  0.13743596492936064  0.000506904577104708  0.6985895247320025  1.0000
  F   F1        1.0  0.6319054800155396  0.13575297071764836  0.41087476561796477  1.0000
  F   F2        1.0  0.36809451916728514  0.6357529712641009  0.08912523443719497  1.0000
  F   F3        1.0  0.36809451961513434  0.8642470290001975  0.5891252345488844  1.0000
  F   F4        1.0  0.6319054802904097  0.36424702845374496  0.9108747653441368  1.0000
  F   F5        1.0  0.8974581415126557  0.16265248262467918  0.4990378782933823  1.0000
  F   F6        1.0  0.10254185767016896  0.6626524831711317  0.0009621217617774435  1.0000
  F   F7        1.0  0.1025418579450392  0.8373475170931667  0.5009621214879496  1.0000
  F   F8        1.0  0.8974581419605049  0.33734751792177337  0.9990378784050717  1.0000
  Br  Br1       1.0  0.15823236185290532  0.9876978221160871  0.3925999352386962  1.0000
  Br  Br2       1.0  0.841767638949247  0.48769782156963454  0.10740006481875346  1.0000
  Br  Br3       1.0  0.8417676392241171  0.012302178976818007  0.6074000645449256  1.0000
  Br  Br4       1.0  0.15823236230075452  0.5123021781482113  0.8925999353503856  1.0000
