data_image0
_chemical_formula_structural       H10C14N4O4
_chemical_formula_sum              "H10 C14 N4 O4"
_cell_length_a       3.6512508812662516
_cell_length_b       6.765110868400516
_cell_length_c       13.94017448398888
_cell_angle_alpha    78.11643593954965
_cell_angle_beta     85.63558830401615
_cell_angle_gamma    87.95953942265156

_space_group_name_H-M_alt    "P 1"
_space_group_IT_number       1

loop_
  _space_group_symop_operation_xyz
  'x, y, z'

loop_
  _atom_site_type_symbol
  _atom_site_label
  _atom_site_symmetry_multiplicity
  _atom_site_fract_x
  _atom_site_fract_y
  _atom_site_fract_z
  _atom_site_occupancy
  H   H1        1.0  0.6287405119841303  0.9946123857411348  0.13815507341305092  1.0000
  H   H2        1.0  0.37125948747410514  0.005387613401496045  0.8618449265899929  1.0000
  H   H3        1.0  0.6319302878896935  0.8931428119587812  0.32277573270992044  1.0000
  H   H4        1.0  0.3680697115163268  0.10685718869469724  0.6772242671402614  1.0000
  H   H5        1.0  0.39325536623767576  0.5532274900008729  0.40596759859756704  1.0000
  H   H6        1.0  0.6067446331683446  0.44677251065260554  0.5940324012526148  1.0000
  H   H7        1.0  0.3839224236647477  0.7516839794159185  0.045845137748898646  1.0000
  H   H8        1.0  0.6160775757412725  0.24831602123756003  0.9541548621012832  1.0000
  H   H9        1.0  0.11771219209074806  0.26667686767003806  0.33810267611613976  1.0000
  H   H10       1.0  0.8822878100621017  0.7333231329812895  0.6618973236796981  1.0000
  C   C1        1.0  0.5261514126866578  0.8489412922597349  0.1774180259026955  1.0000
  C   C2        1.0  0.47384858671936253  0.15105870839374352  0.8225819739474863  1.0000
  C   C3        1.0  0.27202625986733137  0.5274987112797472  0.17856554516531298  1.0000
  C   C4        1.0  0.7279737423367876  0.4725012878668788  0.8214344555001367  1.0000
  C   C5        1.0  0.1366265884968954  0.3826346402318435  0.12887880289679804  1.0000
  C   C6        1.0  0.8633734109091249  0.6173653604216349  0.8711211969533839  1.0000
  C   C7        1.0  0.5278995786797803  0.7941409607095312  0.2791821932982678  1.0000
  C   C8        1.0  0.4721004207784551  0.20585903843309952  0.7208178067047759  1.0000
  C   C9        1.0  0.3976866132787407  0.6042777782845133  0.32648009950702445  1.0000
  C   C10       1.0  0.6023133889263242  0.39572222085596664  0.6735199004416754  1.0000
  C   C11       1.0  0.39383850802665876  0.7144111329260696  0.12533902157855847  1.0000
  C   C12       1.0  0.6061614914315768  0.2855888662165612  0.8746609784244852  1.0000
  C   C13       1.0  0.07484438234591825  0.10128734932567775  0.46994477782358013  1.0000
  C   C14       1.0  0.9251556171123172  0.8987126498169531  0.5300552221794635  1.0000
  N   N1        1.0  0.2733040954154172  0.47256128184091056  0.2775438248906374  1.0000
  N   N2        1.0  0.7266959067887019  0.5274387173057155  0.7224561757748122  1.0000
  N   N3        1.0  0.026404759983179503  0.2663582709152327  0.08733955873543615  1.0000
  N   N4        1.0  0.9735952421696704  0.733641729736095  0.9126604410604018  1.0000
  O   O1        1.0  0.005441777471688705  0.12896850998816783  0.37644220325185884  1.0000
  O   O2        1.0  0.9945582247324303  0.8710314891584582  0.6235577974135907  1.0000
  O   O3        1.0  0.2393217525163548  0.21817517706531267  0.507263748102818  1.0000
  O   O4        1.0  0.7606782469418807  0.7818248220773182  0.4927362519002257  1.0000
