data_image0
_chemical_formula_structural       H18C18N4O4
_chemical_formula_sum              "H18 C18 N4 O4"
_cell_length_a       3.8240401630931364
_cell_length_b       10.49964064380486
_cell_length_c       11.554282623271561
_cell_angle_alpha    64.64812533043205
_cell_angle_beta     86.7477482951341
_cell_angle_gamma    86.08910267872153

_space_group_name_H-M_alt    "P 1"
_space_group_IT_number       1

loop_
  _space_group_symop_operation_xyz
  'x, y, z'

loop_
  _atom_site_type_symbol
  _atom_site_label
  _atom_site_symmetry_multiplicity
  _atom_site_fract_x
  _atom_site_fract_y
  _atom_site_fract_z
  _atom_site_occupancy
  H   H1        1.0  0.9548699513649047  0.7277834987739628  0.3195562349931616  1.0000
  H   H2        1.0  0.04513004719354478  0.2722165018382433  0.6804437651051023  1.0000
  H   H3        1.0  0.36080057018898826  0.6904032187895529  0.3905042440348941  1.0000
  H   H4        1.0  0.6391994283694612  0.30959678182265316  0.6094957560633698  1.0000
  H   H5        1.0  0.2885292581703959  0.4268868906920612  0.44799803216550577  1.0000
  H   H6        1.0  0.7114707430085364  0.5731131099066741  0.5520019678784559  1.0000
  H   H7        1.0  0.8630505597297311  0.4716749228621337  0.3908247412994317  1.0000
  H   H8        1.0  0.13694943879725308  0.5283250777519533  0.6091752579332742  1.0000
  H   H9        1.0  0.6060655864379647  0.7932008034835365  0.06547999956203311  1.0000
  H   H10       1.0  0.3939344121204848  0.20679919712866968  0.9345200005362307  1.0000
  H   H11       1.0  0.01170730313286826  0.5955241017918186  0.7909308683063204  1.0000
  H   H12       1.0  0.9882926955197138  0.40447589776531456  0.20906913219928738  1.0000
  H   H13       1.0  0.21530450211942737  0.035876360913335785  0.6737388519493481  1.0000
  H   H14       1.0  0.7846954991536376  0.9641236386303268  0.32626114850195737  1.0000
  H   H15       1.0  0.7208275905352026  0.5964274441206696  0.9918165354992545  1.0000
  H   H16       1.0  0.27917240799178156  0.4035725564934173  0.008183463733451262  1.0000
  H   H17       1.0  0.9031375062132582  0.01726004101911425  0.8777492966358755  1.0000
  H   H18       1.0  0.09686249240785845  0.9827399585398996  0.12225070300417434  1.0000
  C   C1        1.0  0.1797207825295354  0.6506250508265543  0.34438517508118965  1.0000
  C   C2        1.0  0.8202792187435294  0.34937494871710795  0.6556148253701161  1.0000
  C   C3        1.0  0.06706691304326533  0.5037369814378049  0.4350237322254403  1.0000
  C   C4        1.0  0.9329330856093169  0.4962630181193283  0.5649762682801676  1.0000
  C   C5        1.0  0.354256521370151  0.662065237171794  0.22018160659404568  1.0000
  C   C6        1.0  0.6457434799029138  0.33793476237186837  0.7798183938572599  1.0000
  C   C7        1.0  0.13862297995269993  0.8166241502822015  0.7181654596222392  1.0000
  C   C8        1.0  0.861377021320365  0.18337584926146078  0.28183454082906656  1.0000
  C   C9        1.0  0.000465751266807181  0.6901840468183683  0.8075636167681862  1.0000
  C   C10       1.0  0.9995342500062576  0.30981595272529394  0.1924363836831193  1.0000
  C   C11       1.0  0.1091429719442309  0.9371522015268807  0.7422283427656422  1.0000
  C   C12       1.0  0.890857029328834  0.06284779801678167  0.2577716576856634  1.0000
  C   C13       1.0  0.8377556994836932  0.690069226517488  0.9183680357814674  1.0000
  C   C14       1.0  0.16224429907475618  0.3099307740947181  0.08163196431679627  1.0000
  C   C15       1.0  0.30877958532708644  0.8236994593932758  0.6025483167384801  1.0000
  C   C16       1.0  0.6912204158518459  0.17630054120545952  0.3974516833054815  1.0000
  C   C17       1.0  0.9409059370225268  0.9259737941548342  0.8558430832835541  1.0000
  C   C18       1.0  0.059094064156405446  0.07402620644390122  0.14415691676040746  1.0000
  N   N1        1.0  0.8087690351366916  0.8051049735154939  0.9418061680107671  1.0000
  N   N2        1.0  0.19123096339029247  0.19489502709859285  0.058193831221938684  1.0000
  N   N3        1.0  0.4512042877022835  0.8309963986358135  0.508094025416544  1.0000
  N   N4        1.0  0.5487957109188331  0.1690036009232003  0.49190597422350585  1.0000
  O   O1        1.0  0.4739405462625944  0.7901741186632895  0.14954413866485539  1.0000
  O   O2        1.0  0.5260594549163379  0.20982588193544582  0.8504558613791063  1.0000
  O   O3        1.0  0.38817203553601853  0.5645095748808387  0.18694366880725727  1.0000
  O   O4        1.0  0.6118279657370462  0.43549042466282356  0.8130563316440483  1.0000
