data_image0
_chemical_formula_structural       H20C40N2F6I6
_chemical_formula_sum              "H20 C40 N2 F6 I6"
_cell_length_a       4.988045527864915
_cell_length_b       12.786814792237903
_cell_length_c       16.107879174527135
_cell_angle_alpha    110.40908829824464
_cell_angle_beta     93.63583528581364
_cell_angle_gamma    93.95172436467712

_space_group_name_H-M_alt    "P 1"
_space_group_IT_number       1

loop_
  _space_group_symop_operation_xyz
  'x, y, z'

loop_
  _atom_site_type_symbol
  _atom_site_label
  _atom_site_symmetry_multiplicity
  _atom_site_fract_x
  _atom_site_fract_y
  _atom_site_fract_z
  _atom_site_occupancy
  H   H1        1.0  0.4780702382834242  0.3418995773331906  0.5587295438322459  1.0000
  H   H2        1.0  0.5219297621537536  0.6581004221948297  0.4412704563312687  1.0000
  H   H3        1.0  0.3592849953197617  0.14923063552992646  0.4544194746644345  1.0000
  H   H4        1.0  0.6407150032511643  0.850769364787665  0.5455805255162189  1.0000
  H   H5        1.0  0.9593788480548486  0.10535338365489583  0.341112766322825  1.0000
  H   H6        1.0  0.04062115251691074  0.8946466166585764  0.6588872338441475  1.0000
  H   H7        1.0  0.6972486361702701  0.25534166663572155  0.3307136312645147  1.0000
  H   H8        1.0  0.30275136440148925  0.7446583336777505  0.6692863689024577  1.0000
  H   H9        1.0  0.4236445745768189  0.372102991034991  0.3559697949082306  1.0000
  H   H10       1.0  0.5763554257656692  0.627897008985241  0.6440302045935804  1.0000
  H   H11       1.0  0.6460956786359209  0.5692395068694064  0.3045958774564467  1.0000
  H   H12       1.0  0.35390431993500504  0.4307604934481849  0.6954041227242066  1.0000
  H   H13       1.0  0.1454698943733808  0.3047305207816065  0.2463182395672656  1.0000
  H   H14       1.0  0.8545301038336925  0.6952694784572928  0.7536817599447685  1.0000
  H   H15       1.0  0.7723863234026038  0.26046412144110104  0.12776934481713906  1.0000
  H   H16       1.0  0.22761367703457416  0.7395358780869193  0.8722306553463757  1.0000
  H   H17       1.0  0.9654158939285237  0.5519102693195295  0.07890587166433252  1.0000
  H   H18       1.0  0.0345841064139645  0.4480897307007025  0.9210941278374783  1.0000
  H   H19       1.0  0.3537323367193602  0.6091442174514142  0.19429622485432396  1.0000
  H   H20       1.0  0.6462676638523992  0.3908557828620579  0.8057037753126486  1.0000
  C   C1        1.0  0.27763099683783954  0.9387381369070754  0.2512310323669588  1.0000
  C   C2        1.0  0.7223690037339199  0.061261863406396826  0.7487689678000137  1.0000
  C   C3        1.0  0.11329347047446378  0.8617524530727078  0.27370404355600414  1.0000
  C   C4        1.0  0.8867065298680246  0.13824754694752436  0.7262959559458069  1.0000
  C   C5        1.0  0.907061566713864  0.7966010469535088  0.21015944479772375  1.0000
  C   C6        1.0  0.09293843362862436  0.2033989530667233  0.7898405547040873  1.0000
  C   C7        1.0  0.8626722329942252  0.8037831297898402  0.12612616472603874  1.0000
  C   C8        1.0  0.1373277653474296  0.19621687023451106  0.8738738347894532  1.0000
  C   C9        1.0  0.03147473715784738  0.8830939879540849  0.10780524716330746  1.0000
  C   C10       1.0  0.9685252634139119  0.11690601235938718  0.892194753003665  1.0000
  C   C11       1.0  0.23643091117811496  0.9527571606280858  0.16943400443444748  1.0000
  C   C12       1.0  0.7635690891643732  0.047242839392146095  0.8305659950673635  1.0000
  C   C13       1.0  0.925661956803967  0.38824649363914376  0.4415735967342345  1.0000
  C   C14       1.0  0.07433804376779227  0.6117535066743284  0.5584264034327379  1.0000
  C   C15       1.0  0.14807226975442891  0.4126823277740345  0.5095741943590195  1.0000
  C   C16       1.0  0.8519277308173304  0.5873176725394376  0.490425805807953  1.0000
  C   C17       1.0  0.3020602050544779  0.3232348267836534  0.5108170931319851  1.0000
  C   C18       1.0  0.6979397955172816  0.6767651735298187  0.48918290703498735  1.0000
  C   C19       1.0  0.23738309138082317  0.21561676167927077  0.45192251198868744  1.0000
  C   C20       1.0  0.7626169069608314  0.7843832383450804  0.5480774875268044  1.0000
  C   C21       1.0  0.012879623950992757  0.19073398308070819  0.38744994432218094  1.0000
  C   C22       1.0  0.9871203763914954  0.8092660169395238  0.6125500551796301  1.0000
  C   C23       1.0  0.8642037060034825  0.27516294108019007  0.38225387861460386  1.0000
  C   C24       1.0  0.13579629456827694  0.724837059233282  0.6177461215523685  1.0000
  C   C25       1.0  0.7805851106974273  0.47540878462445185  0.43131147662052605  1.0000
  C   C26       1.0  0.21941488787349855  0.5245912156931395  0.5686885235601273  1.0000
  C   C27       1.0  0.5580386408742255  0.4458201642216326  0.36131099964657676  1.0000
  C   C28       1.0  0.44196135969753375  0.5541798360918394  0.6386890005203957  1.0000
  C   C29       1.0  0.5090069680379347  0.49779582736777517  0.30259074241428535  1.0000
  C   C30       1.0  0.49099303039840986  0.5022041721643644  0.6974092577629102  1.0000
  C   C31       1.0  0.28398776531352865  0.46377004321658066  0.23335393706723462  1.0000
  C   C32       1.0  0.7160122331228158  0.5362299563155588  0.7666460631099609  1.0000
  C   C33       1.0  0.11451232553356204  0.3635107590796163  0.21221406743694035  1.0000
  C   C34       1.0  0.8854876750381973  0.6364892412338558  0.7877859327300321  1.0000
  C   C35       1.0  0.9046341480873551  0.3382199712041478  0.14574780758607708  1.0000
  C   C36       1.0  0.09536585225513328  0.6617800288160841  0.8542521919157339  1.0000
  C   C37       1.0  0.011351937866727337  0.4995302873761108  0.11787036801669559  1.0000
  C   C38       1.0  0.9886480604749275  0.5004697126482404  0.8821296314987963  1.0000
  C   C39       1.0  0.2279044053827253  0.5317025454069546  0.18313192472878762  1.0000
  C   C40       1.0  0.772095592824348  0.4682974538319447  0.8168680747832465  1.0000
  N   N1        1.0  0.8495682174285577  0.40430801744197314  0.09909403244779863  1.0000
  N   N2        1.0  0.1504317831432017  0.595691982871499  0.9009059677191738  1.0000
  F   F1        1.0  0.48136220312355044  0.002345512566698445  0.31093095958677225  1.0000
  F   F2        1.0  0.5186377973136275  0.997654486961322  0.6890690405767423  1.0000
  F   F3        1.0  0.7414685425340605  0.7232679293012778  0.23205851421043236  1.0000
  F   F4        1.0  0.25853145803769895  0.27673207101219427  0.7679414859565401  1.0000
  F   F5        1.0  0.9979804889090125  0.8927361465021083  0.026868914473596798  1.0000
  F   F6        1.0  0.002019511662747038  0.10726385381136394  0.9731310856933757  1.0000
  I   I1        1.0  0.1577197223302846  0.8490148730177208  0.3993824845196264  1.0000
  I   I2        1.0  0.8422802782414748  0.15098512729575123  0.600617515647346  1.0000
  I   I3        1.0  0.5517735292145852  0.7002084897594741  0.029517805163129414  1.0000
  I   I4        1.0  0.44822647135717425  0.299791510553998  0.970482195003843  1.0000
  I   I5        1.0  0.470227069912867  0.07433382610420387  0.1397679917552543  1.0000
  I   I6        1.0  0.5297729286580589  0.9256661742133874  0.860232008425399  1.0000
