data_image0
_chemical_formula_structural       H20C36N4O4I2
_chemical_formula_sum              "H20 C36 N4 O4 I2"
_cell_length_a       5.246118009607504
_cell_length_b       11.670858017814568
_cell_length_c       12.868548450638162
_cell_angle_alpha    113.56539848970947
_cell_angle_beta     95.6732865814962
_cell_angle_gamma    102.31764532794442

_space_group_name_H-M_alt    "P 1"
_space_group_IT_number       1

loop_
  _space_group_symop_operation_xyz
  'x, y, z'

loop_
  _atom_site_type_symbol
  _atom_site_label
  _atom_site_symmetry_multiplicity
  _atom_site_fract_x
  _atom_site_fract_y
  _atom_site_fract_z
  _atom_site_occupancy
  H   H1        1.0  0.9392479080387129  0.7280052841966315  0.1700572590197125  1.0000
  H   H2        1.0  0.06075209127443408  0.27199471555176236  0.8299427404237014  1.0000
  H   H3        1.0  0.811025100650048  0.48576580517724366  0.07894517538970226  1.0000
  H   H4        1.0  0.18897489905655973  0.5142341950006254  0.9210548249199271  1.0000
  H   H5        1.0  0.587239961997375  0.5116498193783968  0.2509943544509168  1.0000
  H   H6        1.0  0.41276003689292506  0.4883501794969952  0.7490056450006625  1.0000
  H   H7        1.0  0.6813631132776011  0.7542137196131943  0.33518901674388635  1.0000
  H   H8        1.0  0.3186368860355459  0.24578628013519965  0.6648109826995274  1.0000
  H   H9        1.0  0.5913090653031826  0.11328476595369699  0.20647751734894063  1.0000
  H   H10       1.0  0.40869093400996465  0.886715233794697  0.7935224820944734  1.0000
  H   H11       1.0  0.5147380133139088  0.8739084662489276  0.13449900991493816  1.0000
  H   H12       1.0  0.48526198830089096  0.12609153392872802  0.8655009904040131  1.0000
  H   H13       1.0  0.32983484515784944  0.48127573176908556  0.38702790870138376  1.0000
  H   H14       1.0  0.6701651541552978  0.5187242679793085  0.6129720907420302  1.0000
  H   H15       1.0  0.44352602534487817  0.2766296537406901  0.32596901439628123  1.0000
  H   H16       1.0  0.5564739743617294  0.723370346437179  0.674030985913348  1.0000
  H   H17       1.0  0.8774882407908764  0.15058336152089175  0.5075338821718335  1.0000
  H   H18       1.0  0.12251175852227068  0.8494166382275022  0.4924661172715803  1.0000
  H   H19       1.0  0.7660621932765322  0.35669876544067247  0.569703655691596  1.0000
  H   H20       1.0  0.23393780603661482  0.6433012343077215  0.4302963437518179  1.0000
  C   C1        1.0  0.07919983426738292  0.6768324462421809  0.1856172924063358  1.0000
  C   C2        1.0  0.9208001650457642  0.32316755350621296  0.814382707037078  1.0000
  C   C3        1.0  0.005967609682040783  0.541333621616249  0.13501503289515854  1.0000
  C   C4        1.0  0.9940323896311063  0.45866637813214484  0.8649849665482554  1.0000
  C   C5        1.0  0.1904112620266968  0.48102658282397187  0.15925516708525053  1.0000
  C   C6        1.0  0.809588739588103  0.5189734173536837  0.8407448332337008  1.0000
  C   C7        1.0  0.4382394092368589  0.5563898033512736  0.2314298836012087  1.0000
  C   C8        1.0  0.5617605900762883  0.44361019639712035  0.7685701158422052  1.0000
  C   C9        1.0  0.49111908039856755  0.6914739195369514  0.2773687528251034  1.0000
  C   C10       1.0  0.5088809212162323  0.3085260806407043  0.7226312474938478  1.0000
  C   C11       1.0  0.27243867182849074  0.2807131731435297  0.02854990602289281  1.0000
  C   C12       1.0  0.7275613278781168  0.7192868270343393  0.9714500942867365  1.0000
  C   C13       1.0  0.21344726179795023  0.13797541186788095  0.9815908953674233  1.0000
  C   C14       1.0  0.7865527379086572  0.8620245883099881  0.01840910494220598  1.0000
  C   C15       1.0  0.02401297119731859  0.06866057731860248  0.021565708912462928  1.0000
  C   C16       1.0  0.9759870304174811  0.931339422859053  0.9784342914064882  1.0000
  C   C17       1.0  0.8785799161464664  0.13288575156853955  0.10245041613004016  1.0000
  C   C18       1.0  0.12142008356014125  0.8671142486093297  0.8975495841795892  1.0000
  C   C19       1.0  0.9165490572591644  0.2744688021255506  0.14396623156194607  1.0000
  C   C20       1.0  0.0834509443556354  0.725531198052105  0.8560337687570051  1.0000
  C   C21       1.0  0.6987976542407083  0.06289427873196095  0.142644479741443  1.0000
  C   C22       1.0  0.3012023450724389  0.9371057210164331  0.8573555197019709  1.0000
  C   C23       1.0  0.6541958444629553  0.9279413150234316  0.10161083680662003  1.0000
  C   C24       1.0  0.3458041552436524  0.07205868515443765  0.8983891635030093  1.0000
  C   C25       1.0  0.03593459666891499  0.43796950778027066  0.48287857309742543  1.0000
  C   C26       1.0  0.9640654030376925  0.5620304923975984  0.5171214272122039  1.0000
  C   C27       1.0  0.2280861664758267  0.41039662256949855  0.41464722964684164  1.0000
  C   C28       1.0  0.771913833230781  0.5896033776083706  0.5853527706627877  1.0000
  C   C29       1.0  0.29307993918901604  0.2927853556355781  0.37884669605814447  1.0000
  C   C30       1.0  0.7069200605175916  0.7072146445422911  0.6211533042514849  1.0000
  C   C31       1.0  0.16570780254281148  0.19832993267939708  0.41164866806452505  1.0000
  C   C32       1.0  0.8342921967703356  0.8016700670689968  0.5883513313788888  1.0000
  C   C33       1.0  0.9775578662044605  0.22344379502151893  0.4812272473579505  1.0000
  C   C34       1.0  0.022442133502147178  0.7765562051563502  0.5187727529516787  1.0000
  C   C35       1.0  0.9150930593074857  0.34176530625046486  0.5162619376452158  1.0000
  C   C36       1.0  0.08490694000566142  0.6582346934979291  0.4837380617981982  1.0000
  N   N1        1.0  0.3152835408069304  0.7514495687600455  0.2555626947480163  1.0000
  N   N2        1.0  0.6847164588996771  0.24855043141782351  0.7444373055616129  1.0000
  N   N3        1.0  0.12664218982068354  0.34115361122788584  0.1106767371038806  1.0000
  N   N4        1.0  0.8733578098859243  0.6588463889499834  0.8893232632057487  1.0000
  O   O1        1.0  0.7767037825288766  0.33242794114849245  0.20491675711731336  1.0000
  O   O2        1.0  0.22329621869246294  0.667572058599688  0.7950832423354226  1.0000
  O   O3        1.0  0.43598639250594534  0.3456972077826788  0.9969196807834376  1.0000
  O   O4        1.0  0.5640136091088546  0.6543027923949768  0.0030803195355136185  1.0000
  I   I1        1.0  0.25316312542164343  0.01704257396087499  0.35548259750677125  1.0000
  I   I2        1.0  0.7468368738621173  0.9829574253439922  0.6445174028110233  1.0000
