data_image0
_chemical_formula_structural       H16C30N4O4I2
_chemical_formula_sum              "H16 C30 N4 O4 I2"
_cell_length_a       5.309265140850134
_cell_length_b       10.721288980811684
_cell_length_c       11.433711674955646
_cell_angle_alpha    72.8286727871688
_cell_angle_beta     78.90664132972577
_cell_angle_gamma    82.7315688994094

_space_group_name_H-M_alt    "P 1"
_space_group_IT_number       1

loop_
  _space_group_symop_operation_xyz
  'x, y, z'

loop_
  _atom_site_type_symbol
  _atom_site_label
  _atom_site_symmetry_multiplicity
  _atom_site_fract_x
  _atom_site_fract_y
  _atom_site_fract_z
  _atom_site_occupancy
  H   H1        1.0  0.5774600643857178  0.12130879952063615  0.5009704021698685  1.0000
  H   H2        1.0  0.42253993438611576  0.8786912008741816  0.4990295972941638  1.0000
  H   H3        1.0  0.5131004957388402  0.21799318043627358  0.679945471542681  1.0000
  H   H4        1.0  0.48689950514244723  0.7820068190080803  0.3200545279454283  1.0000
  H   H5        1.0  0.7923227572778159  0.40559174380875884  0.5701164522594255  1.0000
  H   H6        1.0  0.20767724326777331  0.5944082553792162  0.42988354815642554  1.0000
  H   H7        1.0  0.8872812170983724  0.3025039556831721  0.39587183773798906  1.0000
  H   H8        1.0  0.11271878321918342  0.6974960444495659  0.6041281626621081  1.0000
  H   H9        1.0  0.5269894850519925  0.64729067435269  0.7734065725881263  1.0000
  H   H10       1.0  0.4730105154935969  0.352709324835285  0.22659342782772468  1.0000
  H   H11       1.0  0.4637509018212066  0.7327525912512721  0.958068178233618  1.0000
  H   H12       1.0  0.5362490984963492  0.26724740888146575  0.04193182216647923  1.0000
  H   H13       1.0  0.39530787316032145  0.11804197643271745  0.9630736921690438  1.0000
  H   H14       1.0  0.6046921274929324  0.8819580239563994  0.036926307303311805  1.0000
  H   H15       1.0  0.7041540241484343  0.9634900998435665  0.2012612352789189  1.0000
  H   H16       1.0  0.29584597616912134  0.03650990028917132  0.7987387651211784  1.0000
  C   C1        1.0  0.4055432008870304  0.1851483655318082  0.5184340643131186  1.0000
  C   C2        1.0  0.5944567996585589  0.8148516336561669  0.48156593610273246  1.0000
  C   C3        1.0  0.37021607968277903  0.23800830396083902  0.6187056106070463  1.0000
  C   C4        1.0  0.6297839206347767  0.761991696171899  0.3812943897930509  1.0000
  C   C5        1.0  0.14638990878287278  0.31736947852067426  0.6381812930120747  1.0000
  C   C6        1.0  0.8536100920984148  0.6826305209236797  0.36181870647603476  1.0000
  C   C7        1.0  0.968460711896474  0.3432999900826791  0.5576468128991061  1.0000
  C   C8        1.0  0.03153928842108175  0.6567000100500587  0.442353187500991  1.0000
  C   C9        1.0  0.023145462156652457  0.2858712756945924  0.46022937196021996  1.0000
  C   C10       1.0  0.9768545381609033  0.7141287244381456  0.5397706284398772  1.0000
  C   C11       1.0  0.2682341360325211  0.46406842146443367  0.7409914831352036  1.0000
  C   C12       1.0  0.7317658627393123  0.5359315789303841  0.2590085163288289  1.0000
  C   C13       1.0  0.2214043777750693  0.5180790665863545  0.8485367181093223  1.0000
  C   C14       1.0  0.7785956212247979  0.4819209328637004  0.15146328137046383  1.0000
  C   C15       1.0  0.019579143945975364  0.47456129371499683  0.9477496542152637  1.0000
  C   C16       1.0  0.9804208563715803  0.525438706417741  0.05225034618483352  1.0000
  C   C17       1.0  0.85364080501273  0.38256820416275916  0.9445919426764791  1.0000
  C   C18       1.0  0.14635919530482563  0.6174317959699789  0.05540805772361814  1.0000
  C   C19       1.0  0.8840302848904207  0.3326481510097936  0.8347549957953355  1.0000
  C   C20       1.0  0.11596971576283352  0.6673518493793232  0.16524500367701997  1.0000
  C   C21       1.0  0.3763544979496501  0.6118712110698864  0.8519400459028723  1.0000
  C   C22       1.0  0.6236455023679057  0.38812878906285153  0.1480599544972248  1.0000
  C   C23       1.0  0.3397721784831221  0.6604414687114193  0.9556186958259997  1.0000
  C   C24       1.0  0.660227819953013  0.33955853142701986  0.04438130456577435  1.0000
  C   C25       1.0  0.22151009716960668  0.06677126646525887  0.9805206235897332  1.0000
  C   C26       1.0  0.7784899034836472  0.9332287339238579  0.019479375882622246  1.0000
  C   C27       1.0  0.05593468190876022  0.044673551259878055  0.0943647812309252  1.0000
  C   C28       1.0  0.9440653184087954  0.9553264488728599  0.905635219169172  1.0000
  C   C29       1.0  0.834447209963601  0.9791885735048879  0.11324057923125644  1.0000
  C   C30       1.0  0.1655527903539546  0.020811426627850096  0.8867594211688409  1.0000
  N   N1        1.0  0.23557913131828154  0.2079998829053703  0.4401894672379126  1.0000
  N   N2        1.0  0.7644208674535518  0.7920001174894474  0.5598105322261198  1.0000
  N   N3        1.0  0.09915989458743785  0.3719067126116412  0.7422149013321762  1.0000
  N   N4        1.0  0.9008401060658161  0.6280932877774756  0.25778509814017936  1.0000
  O   O1        1.0  0.4412426696941065  0.49829808832890404  0.6522432101742727  1.0000
  O   O2        1.0  0.5587573289700623  0.5017019108647721  0.3477567902332551  1.0000
  O   O3        1.0  0.7331477806369808  0.2606765882465048  0.8231872674574641  1.0000
  O   O4        1.0  0.2668522200162732  0.7393234121426121  0.17681273201489142  1.0000
  I   I1        1.0  0.14512750628317278  0.103071709402057  0.24228021852685905  1.0000
  I   I2        1.0  0.8548724942624163  0.8969282897859182  0.757719781888992  1.0000
