data_image0
_chemical_formula_structural       H38C44N6O6S4
_chemical_formula_sum              "H38 C44 N6 O6 S4"
_cell_length_a       7.440626614743485
_cell_length_b       11.938344499090082
_cell_length_c       12.591450281312506
_cell_angle_alpha    63.13989306711118
_cell_angle_beta     81.16237535865356
_cell_angle_gamma    82.70006434638546

_space_group_name_H-M_alt    "P 1"
_space_group_IT_number       1

loop_
  _space_group_symop_operation_xyz
  'x, y, z'

loop_
  _atom_site_type_symbol
  _atom_site_label
  _atom_site_symmetry_multiplicity
  _atom_site_fract_x
  _atom_site_fract_y
  _atom_site_fract_z
  _atom_site_occupancy
  H   H1        1.0  0.1432143985849968  0.790358214112001  0.12090904669525979  1.0000
  H   H2        1.0  0.8567856020023676  0.20964178561822017  0.879090952974427  1.0000
  H   H3        1.0  0.2012791335678991  0.854575658392849  0.9003126545058192  1.0000
  H   H4        1.0  0.798720865645695  0.1454243413389899  0.09968734607412365  1.0000
  H   H5        1.0  0.3124691516308898  0.06289137216272431  0.7618272439648176  1.0000
  H   H6        1.0  0.6875308489429413  0.9371086275671416  0.23817275650039998  1.0000
  H   H7        1.0  0.3658477518072458  0.21580465260910514  0.8382303591766417  1.0000
  H   H8        1.0  0.6341522487665852  0.7841953471207609  0.161769641288576  1.0000
  H   H9        1.0  0.278072976877218  0.11465160310235045  0.2759530800149593  1.0000
  H   H10       1.0  0.7219270223499095  0.8853483966298437  0.7240469197694528  1.0000
  H   H11       1.0  0.8914714685766011  0.7481586009056351  0.3585435712102565  1.0000
  H   H12       1.0  0.10852853199723  0.25184139882423084  0.6414564292549612  1.0000
  H   H13       1.0  0.8524633269978725  0.5789959211289446  0.29847878642583947  1.0000
  H   H14       1.0  0.14753667358949177  0.4210040786012767  0.7015212132438473  1.0000
  H   H15       1.0  0.7272853947896654  0.3779165824197474  0.45056690433298735  1.0000
  H   H16       1.0  0.27271460579769885  0.6220834173104739  0.5494330953366993  1.0000
  H   H17       1.0  0.6287743023402212  0.3482874189439957  0.6585550855754266  1.0000
  H   H18       1.0  0.37122569816085027  0.6517125817271745  0.3414449136993284  1.0000
  H   H19       1.0  0.5644184392400043  0.43562432208333385  0.8025828945184453  1.0000
  H   H20       1.0  0.43558155998712306  0.5643756776488601  0.19741710526596676  1.0000
  H   H21       1.0  0.5607639591447802  0.6001856933951507  0.7474474347396511  1.0000
  H   H22       1.0  0.43923604008234723  0.3998143063370432  0.2525525650447608  1.0000
  H   H23       1.0  0.7617334977134275  0.4873368813885023  0.908899876051563  1.0000
  H   H24       1.0  0.23826650277411085  0.5126631192823128  0.09110012401872282  1.0000
  H   H25       1.0  0.8922754227462191  0.41370307674834705  0.8267107290736843  1.0000
  H   H26       1.0  0.10772457774131919  0.5862969239224679  0.17328927099660166  1.0000
  H   H27       1.0  0.09533314745492587  0.5074741889050869  0.9155989847835968  1.0000
  H   H28       1.0  0.9046668516723756  0.4925258117677008  0.08440101540141424  1.0000
  H   H29       1.0  0.3151307469110997  0.6717900668570388  0.8515940900328356  1.0000
  H   H30       1.0  0.6848692536762646  0.3282099328731824  0.14840590963685116  1.0000
  H   H31       1.0  0.2902938092313904  0.8664112425752282  0.6579603772033371  1.0000
  H   H32       1.0  0.7097061913559737  0.13358875715499308  0.3420396224663496  1.0000
  H   H33       1.0  0.05023873996742237  0.8886113827412639  0.5314567835236346  1.0000
  H   H34       1.0  0.9497612591734124  0.11138861793187896  0.46854321586584574  1.0000
  H   H35       1.0  0.46862976760809794  0.9400592855097508  0.4495378758464235  1.0000
  H   H36       1.0  0.5313702329792663  0.05994071422047051  0.5504621238232632  1.0000
  H   H37       1.0  0.5480792780737525  0.8015043751498062  0.43642290580838133  1.0000
  H   H38       1.0  0.45192072241378584  0.1984956255210088  0.5635770942619046  1.0000
  C   C1        1.0  0.21802955272930766  0.9701164917433035  0.09795412021783041  1.0000
  C   C2        1.0  0.7819704477582307  0.02988350892751155  0.9020458798524555  1.0000
  C   C3        1.0  0.18915439520187666  0.883125775153427  0.05862983656061349  1.0000
  C   C4        1.0  0.8108456052856616  0.11687422551738791  0.9413701635096724  1.0000
  C   C5        1.0  0.22320050334410488  0.9194699605602095  0.9355423440469327  1.0000
  C   C6        1.0  0.7767994972297262  0.08053003916965652  0.064457656418285  1.0000
  C   C7        1.0  0.28580294489882246  0.038164713781068386  0.8568942254917993  1.0000
  C   C8        1.0  0.7141970556885419  0.9618352859491529  0.14310577417788747  1.0000
  C   C9        1.0  0.3148389439902305  0.1239569203062501  0.8986816822354543  1.0000
  C   C10       1.0  0.6851610565971339  0.8760430794239712  0.10131831743423222  1.0000
  C   C11       1.0  0.27981339298875413  0.08945373899597295  0.021118665099455498  1.0000
  C   C12       1.0  0.72018660622484  0.9105462607358659  0.9788813354804874  1.0000
  C   C13       1.0  0.30663151738050837  0.16305010844240417  0.08530698725894348  1.0000
  C   C14       1.0  0.693368483206856  0.836949891287817  0.9146930124107432  1.0000
  C   C15       1.0  0.6810057721051136  0.8431480169738766  0.5454668354577531  1.0000
  C   C16       1.0  0.31899422712201375  0.1568519827583173  0.4545331643266588  1.0000
  C   C17       1.0  0.777381299310199  0.6419759427090551  0.5398843205510591  1.0000
  C   C18       1.0  0.22261869991692845  0.3580240570231389  0.460115679233353  1.0000
  C   C19       1.0  0.8319017079823144  0.6605128824388675  0.4222814709158668  1.0000
  C   C20       1.0  0.16809829124481313  0.3394871172933265  0.5777185288685452  1.0000
  C   C21       1.0  0.8111481894492902  0.5656760019056042  0.39006215736109684  1.0000
  C   C22       1.0  0.18885180977783728  0.4343239978265897  0.6099378424233152  1.0000
  C   C23       1.0  0.7400896078946961  0.45278148724882655  0.47540451825458196  1.0000
  C   C24       1.0  0.259910392679135  0.5472185124810395  0.5245954822106356  1.0000
  C   C25       1.0  0.6858365829829118  0.4359114766142976  0.5925107309902907  1.0000
  C   C26       1.0  0.31416341759091915  0.5640885231155685  0.40748926947492686  1.0000
  C   C27       1.0  0.7019789442799074  0.530513054160197  0.6261283835369972  1.0000
  C   C28       1.0  0.2980210562076311  0.46948694651061795  0.3738716165332886  1.0000
  C   C29       1.0  0.6472444235610174  0.5170204342503745  0.7507581120679674  1.0000
  C   C30       1.0  0.3527555770263469  0.48297956547984666  0.2492418876017194  1.0000
  C   C31       1.0  0.8118335374034378  0.5014199766715844  0.8170875654241981  1.0000
  C   C32       1.0  0.18816646181015634  0.49858002306025434  0.1829124351557448  1.0000
  C   C33       1.0  0.9414029971215079  0.6062720277712278  0.7647921419658164  1.0000
  C   C34       1.0  0.058597003452323056  0.3937279719586382  0.2352078584994014  1.0000
  C   C35       1.0  0.08363953730411806  0.5931085761423237  0.8321300110331726  1.0000
  C   C36       1.0  0.9163604618367167  0.4068914245308192  0.16786998835630762  1.0000
  C   C37       1.0  0.20768749722342603  0.6848784017404281  0.7961014820770289  1.0000
  C   C38       1.0  0.7923125033639383  0.3151215979897931  0.2038985175926577  1.0000
  C   C39       1.0  0.19478279256017378  0.7932913705475088  0.6879582790071718  1.0000
  C   C40       1.0  0.8052172066534204  0.20670862918433003  0.31204172157277116  1.0000
  C   C41       1.0  0.059708038618790565  0.8066276427681077  0.6174300010323536  1.0000
  C   C42       1.0  0.9402919619685738  0.19337235696211347  0.38256999863733315  1.0000
  C   C43       1.0  0.9324770689232438  0.7152218962500865  0.6553951748292175  1.0000
  C   C44       1.0  0.06752293030388373  0.2847781034821075  0.34460482495519446  1.0000
  N   N1        1.0  0.2613783617366751  0.09377408748508416  0.20468828409646359  1.0000
  N   N2        1.0  0.738621637476919  0.9062259122467546  0.7953117164834795  1.0000
  N   N3        1.0  0.563505450401591  0.8649722631249454  0.4664221818348228  1.0000
  N   N4        1.0  0.4364945500859474  0.13502773754586975  0.5335778182354629  1.0000
  N   N5        1.0  0.796860353365945  0.7368043208180033  0.5772053916982952  1.0000
  N   N6        1.0  0.20313964722141922  0.26319567891221796  0.4227946079713915  1.0000
  O   O1        1.0  0.009298966065775734  0.9389803620166411  0.30201250090824683  1.0000
  O   O2        1.0  0.9907010331613518  0.06101963771555284  0.6979874988761653  1.0000
  O   O3        1.0  0.3295260779415035  0.8548036699717739  0.31403959327028946  1.0000
  O   O4        1.0  0.6704739212720906  0.14519632976006489  0.6859604073096535  1.0000
  O   O5        1.0  0.6833423478702555  0.9194746277303877  0.5900839871578095  1.0000
  O   O6        1.0  0.3166576513568719  0.0805253720018064  0.40991601262660254  1.0000
  S   S1        1.0  0.19513673619569868  0.9486958719792838  0.2468194097571746  1.0000
  S   S2        1.0  0.8048632643781323  0.05130412775058224  0.753180590708043  1.0000
  S   S3        1.0  0.38254211270306365  0.3051898913234162  0.023517586476325014  1.0000
  S   S4        1.0  0.6174578865105305  0.6948101084084227  0.9764824141036178  1.0000
