data_image0
_chemical_formula_structural       H44C56N8O12F4S8
_chemical_formula_sum              "H44 C56 N8 O12 F4 S8"
_cell_length_a       7.948460496946366
_cell_length_b       24.083575393262578
_cell_length_c       7.299999793203518
_cell_angle_alpha    90.0
_cell_angle_beta     93.95768632446614
_cell_angle_gamma    90.0

_space_group_name_H-M_alt    "P 1"
_space_group_IT_number       1

loop_
  _space_group_symop_operation_xyz
  'x, y, z'

loop_
  _atom_site_type_symbol
  _atom_site_label
  _atom_site_symmetry_multiplicity
  _atom_site_fract_x
  _atom_site_fract_y
  _atom_site_fract_z
  _atom_site_occupancy
  H   H1        1.0  0.7137019347617248  0.3017768874148644  0.42643696586315083  1.0000
  H   H2        1.0  0.28629806467893526  0.8017768875547403  0.07356303402159377  1.0000
  H   H3        1.0  0.2862980641626316  0.6982231124496665  0.5735630340431164  1.0000
  H   H4        1.0  0.7137019355064964  0.1982231123097907  0.9264369659688875  1.0000
  H   H5        1.0  0.7385080467028523  0.1987750461395043  0.42029196909364613  1.0000
  H   H6        1.0  0.261491952737808  0.6987750458641595  0.07970803079109857  1.0000
  H   H7        1.0  0.2614919534825795  0.8012249541402474  0.5797080308968351  1.0000
  H   H8        1.0  0.7385080461865485  0.3012249540003715  0.9202919691151686  1.0000
  H   H9        1.0  0.5066790290424186  0.13915040666833525  0.5172882059203785  1.0000
  H   H10       1.0  0.4933209706267095  0.6391504063929904  0.9827117940916253  1.0000
  H   H11       1.0  0.4933209711430132  0.8608495936114164  0.4827117940701028  1.0000
  H   H12       1.0  0.506679028297647  0.3608495934715406  0.017288205814641886  1.0000
  H   H13       1.0  0.24247451499607833  0.1816983644888615  0.6210580412039678  1.0000
  H   H14       1.0  0.7575254846730498  0.6816983646287373  0.8789419588080359  1.0000
  H   H15       1.0  0.7575254851893535  0.8183016353756695  0.3789419587865134  1.0000
  H   H16       1.0  0.24247451551238203  0.3183016356510144  0.12105804118244533  1.0000
  H   H17       1.0  0.1387916908059515  0.3853195129239847  0.6576116304805456  1.0000
  H   H18       1.0  0.8612083101242518  0.88531951264864  0.8423883696156721  1.0000
  H   H19       1.0  0.8612083093794802  0.6146804873557671  0.3423883695099357  1.0000
  H   H20       1.0  0.13879169006117997  0.11468048721589116  0.157611630374809  1.0000
  H   H21       1.0  0.9736960139013116  0.6228816965522742  0.0704992385218867  1.0000
  H   H22       1.0  0.02630398553934868  0.12288169641239838  0.429500761362858  1.0000
  H   H23       1.0  0.02630398628412018  0.37711830331225676  0.9295007614685945  1.0000
  H   H24       1.0  0.973696014646083  0.8771183034521326  0.5704992386276232  1.0000
  H   H25       1.0  0.03638786474101631  0.6529941984610598  0.759053981489464  1.0000
  H   H26       1.0  0.9636121349183931  0.1529941983211839  0.7409460171519868  1.0000
  H   H27       1.0  0.9636121341833402  0.34700580181869195  0.24094601841680308  1.0000
  H   H28       1.0  0.036387865267038695  0.8470058015433471  0.25905398283849435  1.0000
  H   H29       1.0  0.23701260019584583  0.5976362082860225  0.5809819769968709  1.0000
  H   H30       1.0  0.7629874007343574  0.09763620814614662  0.9190180230993468  1.0000
  H   H31       1.0  0.7629873999895859  0.4023637919937293  0.41901802299361024  1.0000
  H   H32       1.0  0.23701259945107434  0.9023637917183843  0.08098197689113441  1.0000
  H   H33       1.0  0.378178953240153  0.5141386105596252  0.7250032022503156  1.0000
  H   H34       1.0  0.6218210464289751  0.014138610834970033  0.7749967977616883  1.0000
  H   H35       1.0  0.6218210469452788  0.48586138930490586  0.2749967977401656  1.0000
  H   H36       1.0  0.37817895375645666  0.9858613894447817  0.22500320222879305  1.0000
  H   H37       1.0  0.11792913551904155  0.4761845781921673  0.46471891386480735  1.0000
  H   H38       1.0  0.8820708651826938  0.9761845783320432  0.035281086104151343  1.0000
  H   H39       1.0  0.8820708646663903  0.5238154216723637  0.5352810861256739  1.0000
  H   H40       1.0  0.11792913500273786  0.02381542194770858  0.9647189138863299  1.0000
  H   H41       1.0  0.25068215373205255  0.4676139122246156  0.28533940329859003  1.0000
  H   H42       1.0  0.7493178457183264  0.9676139119492708  0.21466059795670733  1.0000
  H   H43       1.0  0.7493178464533792  0.5323860880551361  0.7146605966918912  1.0000
  H   H44       1.0  0.25068215320603016  0.03238608791526024  0.7853394019495599  1.0000
  C   C1        1.0  0.4632322715768473  0.29796726411343105  0.5270109789856232  1.0000
  C   C2        1.0  0.5367677280922808  0.797967264253307  0.9729890210263806  1.0000
  C   C3        1.0  0.5367677286085845  0.7020327357510999  0.472989021004858  1.0000
  C   C4        1.0  0.46323227209315104  0.2020327360264448  0.027010978964100662  1.0000
  C   C5        1.0  0.6113254644492214  0.275709781524282  0.4682554248220571  1.0000
  C   C6        1.0  0.3886745349914389  0.7757097816641578  0.03174457506268755  1.0000
  C   C7        1.0  0.3886745357362104  0.724290218340249  0.5317445751684241  1.0000
  C   C8        1.0  0.6113254651939928  0.22429021861559384  0.9682554249277937  1.0000
  C   C9        1.0  0.6242060878032835  0.21779054373576717  0.46551746072188366  1.0000
  C   C10       1.0  0.37579391289845204  0.717790543875643  0.03448253924707499  1.0000
  C   C11       1.0  0.3757939123821483  0.7822094561287637  0.5344825392685976  1.0000
  C   C12       1.0  0.6242060872869798  0.28220945640410866  0.9655174607434062  1.0000
  C   C13       1.0  0.4929422140061998  0.18409799158144707  0.5199709761896207  1.0000
  C   C14       1.0  0.5070577856629284  0.684097991721323  0.9800290238223831  1.0000
  C   C15       1.0  0.507057786179232  0.8159020082830839  0.4800290238008605  1.0000
  C   C16       1.0  0.49294221452250353  0.31590200855842876  0.019970976168098137  1.0000
  C   C17       1.0  0.34482566782544277  0.20744445533604786  0.5773076245921956  1.0000
  C   C18       1.0  0.6551743318436853  0.7074444554759237  0.9226923754198081  1.0000
  C   C19       1.0  0.6551743311086325  0.7925555445284831  0.42269237668462434  1.0000
  C   C20       1.0  0.3448256683417464  0.29255554438860726  0.07730762457067307  1.0000
  C   C21       1.0  0.33010051383823347  0.2650759779540844  0.5811629568884574  1.0000
  C   C22       1.0  0.6698994858308946  0.7650759780939602  0.9188370431235463  1.0000
  C   C23       1.0  0.6698994863471983  0.7349240219104466  0.41883704310202374  1.0000
  C   C24       1.0  0.3301005143545372  0.23492402177057076  0.08116295686693491  1.0000
  C   C25       1.0  0.18659389667763734  0.297944809391025  0.6396246716443796  1.0000
  C   C26       1.0  0.8134061042428472  0.7979448095309009  0.8603753270812854  1.0000
  C   C27       1.0  0.8134061035077943  0.7020551904735058  0.36037532834610153  1.0000
  C   C28       1.0  0.18659389594258458  0.2020551907488508  0.13962467290919583  1.0000
  C   C29       1.0  0.13663420819976052  0.5514311585029532  0.07598826714642826  1.0000
  C   C30       1.0  0.863365792501975  0.05143115836307732  0.42401173282253046  1.0000
  C   C31       1.0  0.8633657919856713  0.44856884177679857  0.9240117328440529  1.0000
  C   C32       1.0  0.1366342076834568  0.9485688415014537  0.5759882671679508  1.0000
  C   C33       1.0  0.06133049722992209  0.5989846899574393  0.9935675311300406  1.0000
  C   C34       1.0  0.938669502439206  0.09898468981756345  0.5064324688819631  1.0000
  C   C35       1.0  0.9386695029555097  0.4010153103223124  0.006432468860440644  1.0000
  C   C36       1.0  0.06133049774622578  0.9010153100469676  0.49356753110851803  1.0000
  C   C37       1.0  0.0970893113234765  0.6159306451711395  0.8183235164681236  1.0000
  C   C38       1.0  0.9029106883456516  0.11593064503126366  0.6816764835438801  1.0000
  C   C39       1.0  0.9029106876008801  0.38406935510861223  0.18167648343814352  1.0000
  C   C40       1.0  0.09708931183978019  0.8840693548332673  0.3183235164466011  1.0000
  C   C41       1.0  0.21047110638900704  0.5855847140514415  0.7198140550474462  1.0000
  C   C42       1.0  0.789528893280121  0.08558471432678638  0.7801859449645575  1.0000
  C   C43       1.0  0.7895288925353495  0.4144152858130895  0.2801859448588209  1.0000
  C   C44       1.0  0.21047110690531073  0.9144152859529654  0.21981405502592377  1.0000
  C   C45       1.0  0.28915092530254616  0.5387058602448824  0.7976309929605121  1.0000
  C   C46       1.0  0.710849074366582  0.038705860105006575  0.7023690070514916  1.0000
  C   C47       1.0  0.7108490748828856  0.46129413961964855  0.20236900702996913  1.0000
  C   C48       1.0  0.2891509258188498  0.9612941397595244  0.29763099293898954  1.0000
  C   C49       1.0  0.2508141900706986  0.522672304857254  0.9722208258538321  1.0000
  C   C50       1.0  0.7491858095984295  0.02267230513259891  0.5277791741581717  1.0000
  C   C51       1.0  0.7491858101147332  0.47732769500727695  0.027779174136649102  1.0000
  C   C52       1.0  0.2508141905870023  0.9773276951471528  0.4722208258323096  1.0000
  C   C53       1.0  0.08683452930008449  0.5339933830421931  0.26068952508195864  1.0000
  C   C54       1.0  0.9131654714016509  0.03399338331753796  0.23931047488700005  1.0000
  C   C55       1.0  0.9131654708853473  0.4660066168223379  0.7393104749085226  1.0000
  C   C56       1.0  0.0868345287837808  0.9660066169622137  0.7606895251034811  1.0000
  N   N1        1.0  0.22380506579783985  0.3531343187681018  0.6300407615635921  1.0000
  N   N2        1.0  0.7761949338712882  0.853134318492757  0.8699592384484116  1.0000
  N   N3        1.0  0.7761949343875919  0.6468656815116499  0.36995923842688916  1.0000
  N   N4        1.0  0.22380506631414357  0.14686568137177405  0.13004076154206953  1.0000
  N   N5        1.0  0.163866969834123  0.4910928010842069  0.34547335807448515  1.0000
  N   N6        1.0  0.8361330296065372  0.9910928012240828  0.15452664181025952  1.0000
  N   N7        1.0  0.8361330303513088  0.508907198780324  0.6545266419159961  1.0000
  N   N8        1.0  0.1638669705788945  0.008907198640448193  0.8454733581802216  1.0000
  O   O1        1.0  0.3773723882538364  0.3935906083384855  0.3632121319923121  1.0000
  O   O2        1.0  0.6226276111868239  0.8935906080631406  0.13678786789243255  1.0000
  O   O3        1.0  0.6226276119315954  0.6064093919412662  0.6367878679981691  1.0000
  O   O4        1.0  0.3773723889986078  0.1064093918013903  0.8632121320980486  1.0000
  O   O5        1.0  0.5171476136675218  0.3990705073088403  0.6751430629581812  1.0000
  O   O6        1.0  0.4828523860016062  0.8990705074487162  0.8248569370538226  1.0000
  O   O7        1.0  0.4828523865179099  0.6009294925556907  0.3248569370323001  1.0000
  O   O8        1.0  0.5171476129227505  0.10092949241581482  0.17514306285244452  1.0000
  O   O9        1.0  0.9705544051763787  0.5593185446945044  0.3368882182617935  1.0000
  O   O10       1.0  0.029445594264281595  0.0593185449698492  0.16311178162295115  1.0000
  O   O11       1.0  0.0294455950090531  0.44068145517002666  0.6631117817286878  1.0000
  O   O12       1.0  0.9705544046600749  0.9406814553099024  0.8368882182833159  1.0000
  F   F1        1.0  0.3279288201721706  0.47536235102379015  0.040278262315639336  1.0000
  F   F2        1.0  0.6720711805295648  0.975362351163666  0.4597217376533193  1.0000
  F   F3        1.0  0.672071180013261  0.5246376488407408  0.9597217376748418  1.0000
  F   F4        1.0  0.32792881965586695  0.02463764911608574  0.5402782623371619  1.0000
  S   S1        1.0  0.40929526567039914  0.36868062424335707  0.5429558088418722  1.0000
  S   S2        1.0  0.5907047339987289  0.8686806243832329  0.9570441911701315  1.0000
  S   S3        1.0  0.5907047345150327  0.6313193756211739  0.45704419114860895  1.0000
  S   S4        1.0  0.40929526618670287  0.1313193754812981  0.0429558088203497  1.0000
  S   S5        1.0  0.008472619126614213  0.272813821150412  0.7077448995167144  1.0000
  S   S6        1.0  0.9915273805425139  0.7728138208750671  0.7922551004952894  1.0000
  S   S7        1.0  0.9915273797977424  0.7271861791293397  0.2922551003895528  1.0000
  S   S8        1.0  0.008472619642917907  0.2271861789894639  0.20774489949519181  1.0000
