data_image0
_chemical_formula_structural       H44C64N12O4F8I4
_chemical_formula_sum              "H44 C64 N12 O4 F8 I4"
_cell_length_a       15.674566727684647
_cell_length_b       5.729973855110286
_cell_length_c       16.693245955554122
_cell_angle_alpha    90.0
_cell_angle_beta     95.2740178571996
_cell_angle_gamma    90.0

_space_group_name_H-M_alt    "P 1"
_space_group_IT_number       1

loop_
  _space_group_symop_operation_xyz
  'x, y, z'

loop_
  _atom_site_type_symbol
  _atom_site_label
  _atom_site_symmetry_multiplicity
  _atom_site_fract_x
  _atom_site_fract_y
  _atom_site_fract_z
  _atom_site_occupancy
  H   H1        1.0  0.08165151253595312  0.4578852689982303  0.023850836938078764  1.0000
  H   H2        1.0  0.9183484874529801  0.9578852676797002  0.47614916308831134  1.0000
  H   H3        1.0  0.9183484873633528  0.5421147318551268  0.9761491628061628  1.0000
  H   H4        1.0  0.08165151244632572  0.04211473142844826  0.52385083665593  1.0000
  H   H5        1.0  0.20509152846959405  0.35956023571775014  0.2780447359677679  1.0000
  H   H6        1.0  0.7949084715193392  0.8595602343992199  0.22195526405862218  1.0000
  H   H7        1.0  0.7949084714297118  0.640439765135607  0.7219552637764735  1.0000
  H   H8        1.0  0.20509152843560136  0.1404397647089284  0.7780447362872028  1.0000
  H   H9        1.0  0.02879414494125438  0.7897058598207001  0.232444347237783  1.0000
  H   H10       1.0  0.971205855047679  0.2897058593940215  0.2675556527886071  1.0000
  H   H11       1.0  0.9712058550136862  0.210294141032657  0.7675556531080421  1.0000
  H   H12       1.0  0.02879414485162696  0.7102941397141269  0.7324443469556343  1.0000
  H   H13       1.0  0.9904631832087084  0.9414307789884624  0.09405339134160383  1.0000
  H   H14       1.0  0.009536816780224954  0.4414307785617839  0.40594660868478627  1.0000
  H   H15       1.0  0.009536816690597541  0.05856922186489464  0.9059466084026376  1.0000
  H   H16       1.0  0.9904631831747156  0.5585692222915731  0.5940533916610389  1.0000
  H   H17       1.0  0.2084521675127667  0.8806619362668758  0.35011503037420727  1.0000
  H   H18       1.0  0.7915478324761666  0.3806619358401973  0.14988496965218281  1.0000
  H   H19       1.0  0.7915478324421739  0.1193380645864812  0.6498849699716177  1.0000
  H   H20       1.0  0.2084521674231393  0.6193380650131598  0.8501150300920586  1.0000
  H   H21       1.0  0.0990863421579199  0.8441236945062649  0.3671141169411785  1.0000
  H   H22       1.0  0.9009136578310134  0.3441236940795863  0.13288588308521157  1.0000
  H   H23       1.0  0.9009136577413859  0.15587630460188356  0.6328858828030629  1.0000
  H   H24       1.0  0.0990863421239272  0.6558763050285621  0.8671141172606135  1.0000
  H   H25       1.0  0.1525597838335339  0.10996773910897227  0.3935629969453797  1.0000
  H   H26       1.0  0.8474402161553993  0.6099677395356508  0.10643700308101041  1.0000
  H   H27       1.0  0.8474402160657719  0.8900322617443848  0.6064370027988617  1.0000
  H   H28       1.0  0.15255978379954124  0.3900322613177063  0.8935629972648147  1.0000
  H   H29       1.0  0.3767607523935633  0.32678318912922166  0.10395143595878316  1.0000
  H   H30       1.0  0.62323924759537  0.8267831878106915  0.3960485640676069  1.0000
  H   H31       1.0  0.6232392475613773  0.6732168117241354  0.896048564387042  1.0000
  H   H32       1.0  0.37676075230393585  0.17321681129745686  0.6039514356766343  1.0000
  H   H33       1.0  0.36318001288439034  0.02610246465027217  0.20998950333161864  1.0000
  H   H34       1.0  0.636819987104543  0.5261024650769507  0.2900104966947714  1.0000
  H   H35       1.0  0.6368199870705503  0.9738975344578763  0.7900104970142064  1.0000
  H   H36       1.0  0.36318001279476286  0.4738975340311977  0.70998950304947  1.0000
  H   H37       1.0  0.28905967928267445  0.30878508606492505  0.9738255725446656  1.0000
  H   H38       1.0  0.7109403205826388  0.8087850864916035  0.5261744275190109  1.0000
  H   H39       1.0  0.7109403206166315  0.691214914788432  0.026174427199575922  1.0000
  H   H40       1.0  0.2890596793723018  0.19121491436175353  0.4738255728268141  1.0000
  H   H41       1.0  0.18203728380278938  0.9917246716461023  0.9428765997059698  1.0000
  H   H42       1.0  0.8179627167007922  0.49172467121942387  0.5571234003607768  1.0000
  H   H43       1.0  0.8179627161521511  0.008275329207254706  0.05712340063985515  1.0000
  H   H44       1.0  0.18203728383678208  0.5082753296339333  0.44287659938653495  1.0000
  C   C1        1.0  0.4497539375602701  0.5266756701356563  0.42569445198351125  1.0000
  C   C2        1.0  0.550246062428663  0.026675671454186426  0.07430554804287885  1.0000
  C   C3        1.0  0.5502460623946704  0.4733243289724921  0.5743055483623138  1.0000
  C   C4        1.0  0.4497539374706427  0.9733243293991706  0.9256944517013624  1.0000
  C   C5        1.0  0.5033543806567364  0.334038405479454  0.4399807249026905  1.0000
  C   C6        1.0  0.49664561933219686  0.8340384041609239  0.06001927512369951  1.0000
  C   C7        1.0  0.49664561924256945  0.6659615953739031  0.5600192748415508  1.0000
  C   C8        1.0  0.5033543806227437  0.16596159494722454  0.9399807252221255  1.0000
  C   C9        1.0  0.44724845495816135  0.691651140164534  0.486912350958474  1.0000
  C   C10       1.0  0.5527515450307721  0.1916511397378555  0.01308764906791609  1.0000
  C   C11       1.0  0.5527515449411445  0.30834886068882306  0.5130876487857674  1.0000
  C   C12       1.0  0.4472484548685339  0.8083488611155016  0.9869123506763253  1.0000
  C   C13       1.0  0.15754562494188365  0.26519233218573784  0.2389689917280215  1.0000
  C   C14       1.0  0.8424543750470497  0.7651923308672077  0.26103100829836856  1.0000
  C   C15       1.0  0.842454375013057  0.7348076686676193  0.7610310086178036  1.0000
  C   C16       1.0  0.15754562485225623  0.23480766824094065  0.7389689914458728  1.0000
  C   C17       1.0  0.05918144568275684  0.9482679393299639  0.2128030450599219  1.0000
  C   C18       1.0  0.9408185543061763  0.44826793890328526  0.2871969549664682  1.0000
  C   C19       1.0  0.9408185542721837  0.05173205977818456  0.7871969552859033  1.0000
  C   C20       1.0  0.05918144559312942  0.5517320602048631  0.7128030447777731  1.0000
  C   C21       1.0  0.1200202444104579  0.06347124597709006  0.2659960669392753  1.0000
  C   C22       1.0  0.8799797555784754  0.5634712464037686  0.23400393308711476  1.0000
  C   C23       1.0  0.879979755488848  0.9365287531310583  0.7340039328049661  1.0000
  C   C24       1.0  0.1200202443764652  0.43652875444958844  0.7659960672587103  1.0000
  C   C25       1.0  0.07430950525115841  0.23537227116615553  0.10799578633324647  1.0000
  C   C26       1.0  0.9256904947377749  0.7353722698476255  0.39200421369314364  1.0000
  C   C27       1.0  0.9256904946481473  0.7646277296872015  0.892004213410995  1.0000
  C   C28       1.0  0.07430950521716573  0.26462772926052297  0.6079957866526814  1.0000
  C   C29       1.0  0.036507343186463606  0.03271193634379896  0.13578699464875033  1.0000
  C   C30       1.0  0.9634926568024696  0.5327119367704776  0.36421300537763973  1.0000
  C   C31       1.0  0.9634926567128423  0.9672880645095581  0.8642130050954909  1.0000
  C   C32       1.0  0.036507343096836196  0.4672880640828796  0.6357869943666017  1.0000
  C   C33       1.0  0.1365467090272647  0.3499961397225957  0.1609865193705883  1.0000
  C   C34       1.0  0.8634532909616686  0.8499961401492743  0.3390134806558018  1.0000
  C   C35       1.0  0.8634532915103096  0.6500038593855527  0.8390134803767234  1.0000
  C   C36       1.0  0.13654670899327204  0.1500038589588742  0.6609865196900234  1.0000
  C   C37       1.0  0.14614689978772047  0.9698420168259284  0.3486140303110072  1.0000
  C   C38       1.0  0.853853100201213  0.4698420163992499  0.1513859697153829  1.0000
  C   C39       1.0  0.8538531001672202  0.030157984027428687  0.6513859700348179  1.0000
  C   C40       1.0  0.14614689969809305  0.5301579844541072  0.8486140300288585  1.0000
  C   C41       1.0  0.2644301846035781  0.8377942258355388  0.13505665402152872  1.0000
  C   C42       1.0  0.735569815385355  0.3377942271540689  0.36494334600486134  1.0000
  C   C43       1.0  0.7355698153513626  0.16220577327260963  0.8649433463242963  1.0000
  C   C44       1.0  0.26443018451395073  0.6622057736992881  0.63505665373938  1.0000
  C   C45       1.0  0.3315121571870141  0.1834089276101544  0.093102358569291  1.0000
  C   C46       1.0  0.6684878428019192  0.6834089262916243  0.40689764145709906  1.0000
  C   C47       1.0  0.6684878427679264  0.8165910732432027  0.9068976417765341  1.0000
  C   C48       1.0  0.33151215709738674  0.3165910728165241  0.5931023582871423  1.0000
  C   C49       1.0  0.3246461276785374  0.01756553390033972  0.1523417677142117  1.0000
  C   C50       1.0  0.6753538723103959  0.5175655343270182  0.3476582323121784  1.0000
  C   C51       1.0  0.6753538728590369  0.9824344669530173  0.8476582320331  1.0000
  C   C52       1.0  0.3246461276445447  0.4824344665263388  0.6523417680336467  1.0000
  C   C53       1.0  0.21293194354412018  0.828697679966745  0.05991461262323133  1.0000
  C   C54       1.0  0.7870680564448131  0.3286976812852751  0.4400853874031588  1.0000
  C   C55       1.0  0.7870680563551856  0.17130231914140343  0.9400853871210101  1.0000
  C   C56       1.0  0.21293194351012745  0.671302319568082  0.5599146129426663  1.0000
  C   C57       1.0  0.2808039344778893  0.1731378877261745  0.018111937157919436  1.0000
  C   C58       1.0  0.7191960661493123  0.673137888152853  0.48188806287154096  1.0000
  C   C59       1.0  0.7191960660596849  0.8268621131271826  0.9818880625893922  1.0000
  C   C60       1.0  0.2808039344438966  0.326862112700504  0.5181119374773544  1.0000
  C   C61       1.0  0.22138603637167428  0.9979218151057241  5.891827641790652e-05  1.0000
  C   C62       1.0  0.778613963617259  0.4979218146790455  0.49994108174997226  1.0000
  C   C63       1.0  0.7786139635832663  0.002078185747633015  0.999941082069407  1.0000
  C   C64       1.0  0.2213860362820468  0.5020781844291029  0.5000589179942692  1.0000
  N   N1        1.0  0.1798669596183214  0.5490445418340304  0.1351251983044399  1.0000
  N   N2        1.0  0.8201330403706119  0.04904454315256052  0.3648748017219502  1.0000
  N   N3        1.0  0.820133040919253  0.450955457274118  0.8648748014428718  1.0000
  N   N4        1.0  0.1798669595843287  0.9509554577007965  0.635125198623875  1.0000
  N   N5        1.0  0.2421669983544333  0.6563606301005735  0.18124937858235127  1.0000
  N   N6        1.0  0.7578330016345  0.156360629673895  0.31875062144403876  1.0000
  N   N7        1.0  0.7578330016005072  0.34363937075278356  0.8187506217634738  1.0000
  N   N8        1.0  0.24216699826480592  0.8436393711794621  0.6812493783002027  1.0000
  N   N9        1.0  0.15960615111154378  0.6425646945520197  0.06204574804063035  1.0000
  N   N10       1.0  0.8403938488773894  0.14256469412534117  0.43795425198575977  1.0000
  N   N11       1.0  0.840393848787762  0.3574353063013373  0.937954251703611  1.0000
  N   N12       1.0  0.15960615102191636  0.8574353067280159  0.5620457477584816  1.0000
  O   O1        1.0  0.0498006552922952  0.308836067100334  0.03247403433191907  1.0000
  O   O2        1.0  0.950199344696638  0.8088360675270125  0.467525965694471  1.0000
  O   O3        1.0  0.9501993446070106  0.6911639320078143  0.9675259654123223  1.0000
  O   O4        1.0  0.049800655258302504  0.19116393332634452  0.532474034651354  1.0000
  F   F1        1.0  0.5090269557044346  0.16951536683430554  0.3823716812599422  1.0000
  F   F2        1.0  0.4909730442844988  0.6695153655157754  0.1176283187664479  1.0000
  F   F3        1.0  0.49097304425050603  0.8304846340190516  0.6176283190858829  1.0000
  F   F4        1.0  0.509026955614807  0.330484633592373  0.8823716809777935  1.0000
  F   F5        1.0  0.394733315468651  0.8794601803471943  0.47684280035494947  1.0000
  F   F6        1.0  0.6052666845202823  0.3794601799205156  0.023157199671440597  1.0000
  F   F7        1.0  0.6052666844306549  0.12053981876095421  0.523157199389292  1.0000
  F   F8        1.0  0.39473331543465834  0.6205398191876328  0.9768428006743847  1.0000
  I   I1        1.0  0.37170725730623855  0.5637169037201183  0.31814863569832424  1.0000
  I   I2        1.0  0.6282927426826949  0.06371690329343971  0.18185136432806578  1.0000
  I   I3        1.0  0.6282927432869704  0.4362830971332389  0.6818513646505711  1.0000
  I   I4        1.0  0.37170725721661113  0.9362830958147088  0.8181486354161757  1.0000
