data_image0
_chemical_formula_structural       H88C80N24O32S16
_chemical_formula_sum              "H88 C80 N24 O32 S16"
_cell_length_a       28.496428490374214
_cell_length_b       7.135515874690057
_cell_length_c       13.77993525312001
_cell_angle_alpha    90.0
_cell_angle_beta     114.22940618745379
_cell_angle_gamma    90.0

_space_group_name_H-M_alt    "P 1"
_space_group_IT_number       1

loop_
  _space_group_symop_operation_xyz
  'x, y, z'

loop_
  _atom_site_type_symbol
  _atom_site_label
  _atom_site_symmetry_multiplicity
  _atom_site_fract_x
  _atom_site_fract_y
  _atom_site_fract_z
  _atom_site_occupancy
  H   H1        1.0  0.3051185135823296  0.5195396289635509  0.2052159231055268  1.0000
  H   H2        1.0  0.6948814865163017  0.5195396289635509  0.2947840771643791  1.0000
  H   H3        1.0  0.8051185138031876  0.019539628591472534  0.20521592360950475  1.0000
  H   H4        1.0  0.19488148629544352  0.019539628591472534  0.29478407666040113  1.0000
  H   H5        1.0  0.6948814861732167  0.48046037178060585  0.794784076426329  1.0000
  H   H6        1.0  0.30511851362697345  0.48046037178060585  0.7052159234166983  1.0000
  H   H7        1.0  0.19488148634008745  0.9804603721526842  0.7947840769715726  1.0000
  H   H8        1.0  0.8051185134601028  0.9804603721526842  0.7052159228714547  1.0000
  H   H9        1.0  0.20508853474922342  0.4989812246973181  0.8691148726244169  1.0000
  H   H10       1.0  0.7949114654357758  0.4989812246973181  0.6308851275396823  1.0000
  H   H11       1.0  0.7050885345823527  0.9989812250693966  0.8691148720791733  1.0000
  H   H12       1.0  0.29491146521783745  0.9989812250693966  0.630885127763854  1.0000
  H   H13       1.0  0.7949114653940516  0.5010187746453983  0.13088512795666055  1.0000
  H   H14       1.0  0.20508853470457955  0.5010187746453983  0.3691148723132454  1.0000
  H   H15       1.0  0.2949114651731936  0.0010187756747602726  0.1308851274526825  1.0000
  H   H16       1.0  0.7050885345406285  0.0010187756747602726  0.36911487249615166  1.0000
  H   H17       1.0  0.13284457859352589  0.6184304257036886  0.9091418503795682  1.0000
  H   H18       1.0  0.8671554215914732  0.6184304257036886  0.5908581497845309  1.0000
  H   H19       1.0  0.6328445784295749  0.11843042533161019  0.9091418505624743  1.0000
  H   H20       1.0  0.3671554213706154  0.11843042533161019  0.5908581492805529  1.0000
  H   H21       1.0  0.8671554215468296  0.38156957504046823  0.09085814947335938  1.0000
  H   H22       1.0  0.13284457855180168  0.38156957504046823  0.40914185079654647  1.0000
  H   H23       1.0  0.36715542132597145  0.8815695754125465  0.09085814896938145  1.0000
  H   H24       1.0  0.6328445783849309  0.8815695754125465  0.4091418502513029  1.0000
  H   H25       1.0  0.23268105216351737  0.6416560751045735  0.2431713056859804  1.0000
  H   H26       1.0  0.7673189475503047  0.6416560751045735  0.2568286942628538  1.0000
  H   H27       1.0  0.7326810523814556  0.1416560747324951  0.2431713054618086  1.0000
  H   H28       1.0  0.2673189477142558  0.1416560747324951  0.2568286940799475  1.0000
  H   H29       1.0  0.7673189475949487  0.35834392423814293  0.7568286945740252  1.0000
  H   H30       1.0  0.23268105220524157  0.35834392423814293  0.743171305269002  1.0000
  H   H31       1.0  0.26731894775889964  0.8583439246102214  0.756828694391119  1.0000
  H   H32       1.0  0.7326810524260995  0.8583439246102214  0.7431713057729799  1.0000
  H   H33       1.0  0.36157456914450425  0.28378440964339624  0.8820793620146474  1.0000
  H   H34       1.0  0.6384254306556858  0.28378440964339624  0.6179206378283798  1.0000
  H   H35       1.0  0.8615745693653623  0.7837844086140343  0.8820793625186254  1.0000
  H   H36       1.0  0.13842543081963693  0.7837844086140343  0.6179206376454737  1.0000
  H   H37       1.0  0.638425430611042  0.7162155911007605  0.11792063751720826  1.0000
  H   H38       1.0  0.36157456948758915  0.7162155911007605  0.3820793627526975  1.0000
  H   H39       1.0  0.13842543077499306  0.21621559072868216  0.11792063733430215  1.0000
  H   H40       1.0  0.8615745693207183  0.21621559072868216  0.382079362207454  1.0000
  H   H41       1.0  0.05398130213948337  0.5684829606207269  0.17343927776018628  1.0000
  H   H42       1.0  0.9460186975743387  0.5684829606207269  0.3265607221886478  1.0000
  H   H43       1.0  0.5539813023574217  0.06848296024864857  0.17343927753601446  1.0000
  H   H44       1.0  0.4460186977382897  0.06848296024864857  0.32656072200574165  1.0000
  H   H45       1.0  0.9460186976189825  0.43151704012342984  0.8265607224998192  1.0000
  H   H46       1.0  0.05398130218120757  0.43151704012342984  0.673439277343208  1.0000
  H   H47       1.0  0.4460186977829336  0.9315170404955082  0.8265607223169132  1.0000
  H   H48       1.0  0.5539813024020656  0.9315170404955082  0.6734392778471859  1.0000
  H   H49       1.0  0.9978210998627252  0.42278639876630353  0.1368309347571924  1.0000
  H   H50       1.0  0.002178900235906009  0.42278639876630353  0.3631690655127135  1.0000
  H   H51       1.0  0.4978210996447868  0.922786399138382  0.1368309349813642  1.0000
  H   H52       1.0  0.5021789004538443  0.922786399138382  0.36316906528854165  1.0000
  H   H53       1.0  0.0021789002776302162  0.5772136005764128  0.8631690650957351  1.0000
  H   H54       1.0  0.997821099907369  0.5772136005764128  0.6368309350683639  1.0000
  H   H55       1.0  0.5021789001136792  0.07721360020433446  0.8631690652786415  1.0000
  H   H56       1.0  0.497821099686511  0.07721360020433446  0.6368309345643859  1.0000
  H   H57       1.0  0.0354940239168315  0.41527638254027593  0.05872202099680815  1.0000
  H   H58       1.0  0.9645059761788799  0.41527638254027593  0.44127797854494805  1.0000
  H   H59       1.0  0.5354940241376894  0.915276381510914  0.05872202150078609  1.0000
  H   H60       1.0  0.4645059759609417  0.915276381510914  0.4412779787691197  1.0000
  H   H61       1.0  0.9645059762235239  0.5847236182038809  0.9412779788561194  1.0000
  H   H62       1.0  0.03549402396147538  0.5847236182038809  0.5587220213079795  1.0000
  H   H63       1.0  0.46450597600266585  0.08472361783180245  0.9412779783521414  1.0000
  H   H64       1.0  0.5354940237975243  0.08472361783180245  0.5587220214908859  1.0000
  H   H65       1.0  0.06870553520149776  0.9327115848213409  0.17782645703654712  1.0000
  H   H66       1.0  0.9312944645123243  0.9327115848213409  0.322173542912287  1.0000
  H   H67       1.0  0.568705535419436  0.43271158444926255  0.17782645681237533  1.0000
  H   H68       1.0  0.4312944646791951  0.43271158444926255  0.3221735434575306  1.0000
  H   H69       1.0  0.9312944645569681  0.06728841452137552  0.8221735432234585  1.0000
  H   H70       1.0  0.06870553524322197  0.06728841452137552  0.6778264566195689  1.0000
  H   H71       1.0  0.43129446472091926  0.5672884148934539  0.8221735430405522  1.0000
  H   H72       1.0  0.56870553546408  0.5672884148934539  0.6778264571235468  1.0000
  H   H73       1.0  0.04072485651815414  0.07981941600329484  0.06082218988172803  1.0000
  H   H74       1.0  0.9592751435804769  0.07981941600329484  0.4391778103881778  1.0000
  H   H75       1.0  0.5407248563542031  0.5798194163753733  0.06082219006463426  1.0000
  H   H76       1.0  0.45927514335961894  0.5798194163753733  0.43917780988419985  1.0000
  H   H77       1.0  0.9592751436222012  0.9201805833394215  0.9391778099711995  1.0000
  H   H78       1.0  0.04072485656279801  0.9201805833394215  0.5608221901928995  1.0000
  H   H79       1.0  0.4592751434042629  0.4201805829673432  0.9391778101953715  1.0000
  H   H80       1.0  0.5407248563959273  0.4201805829673432  0.560822189647656  1.0000
  H   H81       1.0  0.007111210214330133  0.039506204589902144  0.14543297568695243  1.0000
  H   H82       1.0  0.9928887898843011  0.039506204589902144  0.3545670245829534  1.0000
  H   H83       1.0  0.5071112100474594  0.5395062049619805  0.14543297514170891  1.0000
  H   H84       1.0  0.492888789663443  0.5395062049619805  0.3545670240789755  1.0000
  H   H85       1.0  0.9928887899289449  0.9604937961542547  0.8545670248941251  1.0000
  H   H86       1.0  0.007111210256054341  0.9604937961542547  0.6454329752699742  1.0000
  H   H87       1.0  0.49288878970808697  0.46049379578217625  0.854567024390147  1.0000
  H   H88       1.0  0.5071112100921032  0.46049379578217625  0.6454329754528804  1.0000
  C   C1        1.0  0.3805124177958053  0.3252138542962456  0.05030665082873448  1.0000
  C   C2        1.0  0.6194875819180167  0.3252138542962456  0.44969334912009956  1.0000
  C   C3        1.0  0.8805124180166631  0.8252138546683241  0.0503066513327124  1.0000
  C   C4        1.0  0.11948758208196784  0.8252138546683241  0.4496933489371934  1.0000
  C   C5        1.0  0.6194875819597411  0.6747861450464708  0.9496933487031213  1.0000
  C   C6        1.0  0.3805124178404492  0.6747861450464708  0.550306651139906  1.0000
  C   C7        1.0  0.11948758212661172  0.17478614607583276  0.949693349248365  1.0000
  C   C8        1.0  0.8805124180583874  0.17478614607583276  0.5503066509157342  1.0000
  C   C9        1.0  0.25982823588484627  0.5009269452652235  0.035381105851734616  1.0000
  C   C10       1.0  0.7401717638260561  0.5009269452652235  0.4646188933689497  1.0000
  C   C11       1.0  0.7598282361057042  0.0009269448931451364  0.03538110635571257  1.0000
  C   C12       1.0  0.24017176399292692  0.0009269448931451364  0.46461889391419325  1.0000
  C   C13       1.0  0.7401717638706999  0.4990730540774929  0.9646188936801211  1.0000
  C   C14       1.0  0.2598282359294901  0.4990730540774929  0.5353811061629061  1.0000
  C   C15       1.0  0.24017176403757076  0.9990730544495712  0.9646188942253648  1.0000
  C   C16       1.0  0.7598282361474284  0.9990730544495712  0.5353811059387343  1.0000
  C   C17       1.0  0.3021850748161066  0.4315744249022168  0.0136180505226444  1.0000
  C   C18       1.0  0.6978149248977155  0.4315744249022168  0.48638194942618973  1.0000
  C   C19       1.0  0.802185075034045  0.9315744252742952  0.013618050298472616  1.0000
  C   C20       1.0  0.19781492506458614  0.9315744252742952  0.4863819499714333  1.0000
  C   C21       1.0  0.6978149249423593  0.56842557584194  0.9863819497373613  1.0000
  C   C22       1.0  0.30218507485783086  0.56842557584194  0.5136180501056661  1.0000
  C   C23       1.0  0.19781492510631035  0.0684255754698616  0.986381949554455  1.0000
  C   C24       1.0  0.8021850750786889  0.0684255754698616  0.513618050609644  1.0000
  C   C25       1.0  0.17926209895761247  0.6346527944900279  0.07742691905057439  1.0000
  C   C26       1.0  0.8207379011410187  0.6346527944900279  0.4225730812193315  1.0000
  C   C27       1.0  0.6792620991755508  0.13465279411794942  0.07742691882640255  1.0000
  C   C28       1.0  0.32073790092016063  0.13465279411794942  0.42257308071535354  1.0000
  C   C29       1.0  0.8207379008008535  0.3653472048526886  0.9225730812094313  1.0000
  C   C30       1.0  0.1792620989993367  0.3653472048526886  0.5774269186335961  1.0000
  C   C31       1.0  0.32073790096480453  0.865347205224767  0.922573081026525  1.0000
  C   C32       1.0  0.6792620992201948  0.865347205224767  0.577426919137574  1.0000
  C   C33       1.0  0.2673880329365829  0.5401378986025186  0.14082461026556223  1.0000
  C   C34       1.0  0.7326119671620481  0.5401378986025186  0.35917539000434356  1.0000
  C   C35       1.0  0.7673880327726318  0.0401378982304402  0.14082461044846842  1.0000
  C   C36       1.0  0.23261196694119024  0.0401378982304402  0.3591753895003657  1.0000
  C   C37       1.0  0.7326119672037724  0.4598621021416382  0.8591753895873653  1.0000
  C   C38       1.0  0.26738803298122676  0.4598621021416382  0.6408246105767337  1.0000
  C   C39       1.0  0.23261196698583414  0.9598621025137166  0.8591753898115373  1.0000
  C   C40       1.0  0.767388032814356  0.9598621025137166  0.6408246100314902  1.0000
  C   C41       1.0  0.21127956444475798  0.5286348872657853  0.9509425238725105  1.0000
  C   C42       1.0  0.7887204353554322  0.5286348872657853  0.5490574759705168  1.0000
  C   C43       1.0  0.7112795646626963  0.028634886893706923  0.9509425236483388  1.0000
  C   C44       1.0  0.2887204355223029  0.028634886893706923  0.5490574765157603  1.0000
  C   C45       1.0  0.7887204353107883  0.4713651120769311  0.049057475659345325  1.0000
  C   C46       1.0  0.21127956440011406  0.4713651120769311  0.45094252356133907  1.0000
  C   C47       1.0  0.2887204354776591  0.9713651124490095  0.049057476204588855  1.0000
  C   C48       1.0  0.7112795646209721  0.9713651124490095  0.4509425240653171  1.0000
  C   C49       1.0  0.17080119652371148  0.5955306798591602  0.9722336576001896  1.0000
  C   C50       1.0  0.8291988036612877  0.5955306798591602  0.5277663425639094  1.0000
  C   C51       1.0  0.6708011963568408  0.0955306794870818  0.972233657054946  1.0000
  C   C52       1.0  0.32919880382815847  0.0955306794870818  0.5277663431091529  1.0000
  C   C53       1.0  0.8291988036195634  0.40446931948355624  0.027766342980887666  1.0000
  C   C54       1.0  0.17080119647906764  0.40446931948355624  0.4722336572890182  1.0000
  C   C55       1.0  0.32919880378351457  0.9044693198556346  0.027766342797981458  1.0000
  C   C56       1.0  0.6708011963151166  0.9044693198556346  0.4722336574719245  1.0000
  C   C57       1.0  0.22698497292107914  0.6082547774008734  0.16212855566279347  1.0000
  C   C58       1.0  0.7730150271775521  0.6082547774008734  0.3378714446071125  1.0000
  C   C59       1.0  0.726984972757128  0.10825477843023547  0.1621285558456996  1.0000
  C   C60       1.0  0.2730150273415031  0.10825477843023547  0.33787144442420625  1.0000
  C   C61       1.0  0.7730150272192762  0.3917452219418429  0.837871444190134  1.0000
  C   C62       1.0  0.22698497296572298  0.3917452219418429  0.6621285559739649  1.0000
  C   C63       1.0  0.2730150270013379  0.8917452223139213  0.8378714444143059  1.0000
  C   C64       1.0  0.7269849727988522  0.8917452223139213  0.6621285554287213  1.0000
  C   C65       1.0  0.036592121139203  0.4339061708183063  0.13862232360455365  1.0000
  C   C66       1.0  0.9634078789594281  0.4339061708183063  0.3613776766653522  1.0000
  C   C67       1.0  0.5365921209752519  0.9339061711903847  0.13862232378745984  1.0000
  C   C68       1.0  0.4634078787385702  0.9339061711903847  0.3613776761613743  1.0000
  C   C69       1.0  0.9634078790011523  0.5660938285244101  0.8613776762483739  1.0000
  C   C70       1.0  0.03659212118384688  0.5660938285244101  0.6386223239157252  1.0000
  C   C71       1.0  0.463407878783214  0.06609382815233177  0.8613776764725457  1.0000
  C   C72       1.0  0.5365921210169762  0.06609382815233177  0.6386223233704815  1.0000
  C   C73       1.0  0.04484950824414708  0.05602455477928068  0.14262425978929524  1.0000
  C   C74       1.0  0.9551504918544841  0.05602455477928068  0.35737574048061066  1.0000
  C   C75       1.0  0.5448495080772764  0.5560245537499187  0.14262425924405162  1.0000
  C   C76       1.0  0.45515049201843516  0.5560245537499187  0.35737574029770447  1.0000
  C   C77       1.0  0.9551504918991278  0.9439754459648761  0.857375740791782  1.0000
  C   C78       1.0  0.044849508285871295  0.9439754459648761  0.642624259372317  1.0000
  C   C79       1.0  0.455150492063079  0.44397544559279767  0.8573757406088759  1.0000
  C   C80       1.0  0.5448495081219202  0.44397544559279767  0.6426242595552232  1.0000
  N   N1        1.0  0.3507986447182469  0.3274553558612176  0.9445890490284921  1.0000
  N   N2        1.0  0.6492013554667524  0.3274553558612176  0.555410951135607  1.0000
  N   N3        1.0  0.8507986445542959  0.8274553562332959  0.9445890492113983  1.0000
  N   N4        1.0  0.1492013552458943  0.8274553562332959  0.555410950631629  1.0000
  N   N5        1.0  0.6492013554221086  0.6725446434814989  0.055410950824435486  1.0000
  N   N6        1.0  0.3507986446765228  0.6725446434814989  0.4445890494454704  1.0000
  N   N7        1.0  0.1492013555860595  0.17254464310942044  0.055410950641529295  1.0000
  N   N8        1.0  0.850798644509652  0.17254464310942044  0.4445890489002269  1.0000
  N   N9        1.0  0.30240958873282103  0.39263720790498485  0.921140256564197  1.0000
  N   N10       1.0  0.6975904114521783  0.39263720790498485  0.5788597435999021  1.0000
  N   N11       1.0  0.80240958856887  0.8926372082770633  0.9211402567471033  1.0000
  N   N12       1.0  0.1975904112313202  0.8926372082770633  0.5788597430959241  1.0000
  N   N13       1.0  0.6975904114075344  0.6073627914377315  0.07885974328873062  1.0000
  N   N14       1.0  0.3024095886910968  0.6073627914377315  0.4211402569811753  1.0000
  N   N15       1.0  0.19759041157440504  0.10736279106565315  0.07885974383397419  1.0000
  N   N16       1.0  0.8024095885242262  0.10736279106565315  0.4211402564359316  1.0000
  N   N17       1.0  0.13642251566745373  0.7067753990833998  0.09881333324741334  1.0000
  N   N18       1.0  0.8635774844311774  0.7067753990833998  0.4011866670224925  1.0000
  N   N19       1.0  0.636422515500583  0.20677539871132142  0.09881333270216977  1.0000
  N   N20       1.0  0.3635774842132391  0.20677539871132142  0.40118666724666435  1.0000
  N   N21       1.0  0.8635774844758213  0.293224601660757  0.901186667333664  1.0000
  N   N22       1.0  0.13642251570917793  0.293224601660757  0.5988133328304351  1.0000
  N   N23       1.0  0.3635774842549632  0.7932246020328354  0.901186666829686  1.0000
  N   N24       1.0  0.6364225155452269  0.7932246020328354  0.5988133330133413  1.0000
  O   O1        1.0  0.34890994592218827  0.39580806764341725  0.09632222743279646  1.0000
  O   O2        1.0  0.6510900537916338  0.39580806764341725  0.4036777725160376  1.0000
  O   O3        1.0  0.8489099461401266  0.8958080680154956  0.09632222720862461  1.0000
  O   O4        1.0  0.1510900539555849  0.8958080680154956  0.40367777233313146  1.0000
  O   O5        1.0  0.6510900538333579  0.6041919316992991  0.9036777720990594  1.0000
  O   O6        1.0  0.34890994596391245  0.6041919316992991  0.5963222270158182  1.0000
  O   O7        1.0  0.15109005400022876  0.10419193132722075  0.9036777726443029  1.0000
  O   O8        1.0  0.8489099461847704  0.10419193132722075  0.5963222275197961  1.0000
  O   O9        1.0  0.1436991077578735  0.7345283623558138  0.19308858857550606  1.0000
  O   O10       1.0  0.8563008923407575  0.7345283623558138  0.3069114116943998  1.0000
  O   O11       1.0  0.6436991075939223  0.2345283619837354  0.1930885887584122  1.0000
  O   O12       1.0  0.3563008921198997  0.2345283619837354  0.30691141119042187  1.0000
  O   O13       1.0  0.8563008923824819  0.26547163838834303  0.8069114112774216  1.0000
  O   O14       1.0  0.14369910780251738  0.26547163838834303  0.6930885888866776  1.0000
  O   O15       1.0  0.3563008921645435  0.7654716387604213  0.8069114115015934  1.0000
  O   O16       1.0  0.6436991076356465  0.7654716387604213  0.6930885883414339  1.0000
  O   O17       1.0  0.09478035801613009  0.7373193490692818  0.021741704507166275  1.0000
  O   O18       1.0  0.9052196420795814  0.7373193490692818  0.4782582950345898  1.0000
  O   O19       1.0  0.5947803578521791  0.2373193486972034  0.021741704690072482  1.0000
  O   O20       1.0  0.40521964224645207  0.2373193486972034  0.47825829557983335  1.0000
  O   O21       1.0  0.9052196421242252  0.2626806502734346  0.9782582953457613  1.0000
  O   O22       1.0  0.09478035806077395  0.2626806502734346  0.5217417048183377  1.0000
  O   O23       1.0  0.4052196419033673  0.762680650645513  0.9782582948417832  1.0000
  O   O24       1.0  0.5947803578968228  0.762680650645513  0.521741705001244  1.0000
  O   O25       1.0  0.12868040221461868  0.2721468768485292  0.21749134023158767  1.0000
  O   O26       1.0  0.8713195974992035  0.2721468768485292  0.28250865971724654  1.0000
  O   O27       1.0  0.6286804024354766  0.7721468772206076  0.2174913407355656  1.0000
  O   O28       1.0  0.3713195976631545  0.7721468772206076  0.28250865953434023  1.0000
  O   O29       1.0  0.8713195975409276  0.7278531238956275  0.7825086593002681  1.0000
  O   O30       1.0  0.12868040225926258  0.7278531238956275  0.7174913405427591  1.0000
  O   O31       1.0  0.3713195977077984  0.2278531235235492  0.7825086598455118  1.0000
  O   O32       1.0  0.6286804024772008  0.2278531235235492  0.7174913403185873  1.0000
  S   S1        1.0  0.4401261790702211  0.2562224136428558  0.11780732235278797  1.0000
  S   S2        1.0  0.5598738210254903  0.2562224136428558  0.3821926771889681  1.0000
  S   S3        1.0  0.9401261792910791  0.7562224140149343  0.11780732285676603  1.0000
  S   S4        1.0  0.059873820807552  0.7562224140149343  0.3821926774131399  1.0000
  S   S5        1.0  0.5598738206853251  0.743777587101301  0.8821926771790678  1.0000
  S   S6        1.0  0.440126179114865  0.743777587101301  0.6178073226639594  1.0000
  S   S7        1.0  0.059873820852195885  0.2437775867292226  0.8821926777243113  1.0000
  S   S8        1.0  0.9401261789479942  0.2437775867292226  0.6178073221187159  1.0000
  S   S9        1.0  0.0763945529247077  0.25339551922425485  0.22306628640671536  1.0000
  S   S10       1.0  0.9236054471739235  0.25339551922425485  0.2769337138631906  1.0000
  S   S11       1.0  0.5763945527578369  0.7533955195963333  0.22306628586147176  1.0000
  S   S12       1.0  0.42360544733787453  0.7533955195963333  0.2769337136802843  1.0000
  S   S13       1.0  0.9236054472156475  0.7466044801184616  0.7769337134462122  1.0000
  S   S14       1.0  0.07639455258162287  0.7466044801184616  0.7230662856686652  1.0000
  S   S15       1.0  0.42360544738251843  0.2466044797463832  0.7769337139914558  1.0000
  S   S16       1.0  0.5763945528024809  0.2466044797463832  0.7230662861726431  1.0000
