data_image0
_chemical_formula_structural       H108B4C116N8O8
_chemical_formula_sum              "H108 B4 C116 N8 O8"
_cell_length_a       5.920902070697718
_cell_length_b       13.816334936256311
_cell_length_c       27.77961408870095
_cell_angle_alpha    90.0
_cell_angle_beta     90.0
_cell_angle_gamma    90.0

_space_group_name_H-M_alt    "P 1"
_space_group_IT_number       1

loop_
  _space_group_symop_operation_xyz
  'x, y, z'

loop_
  _atom_site_type_symbol
  _atom_site_label
  _atom_site_symmetry_multiplicity
  _atom_site_fract_x
  _atom_site_fract_y
  _atom_site_fract_z
  _atom_site_occupancy
  H   H1        1.0  0.39115938624654223  0.40815580007414093  0.2617689031525366  1.0000
  H   H2        1.0  0.10884061285007202  0.5918441994730391  0.761768903355906  1.0000
  H   H3        1.0  0.608840613635618  0.9081558002096214  0.23823109669085665  1.0000
  H   H4        1.0  0.8911593870320883  0.09184420006133957  0.7382310968942261  1.0000
  H   H5        1.0  0.07176266300751871  0.5365875273148826  0.22406158271765492  1.0000
  H   H6        1.0  0.42823733608909553  0.46341247295607846  0.7240615829210244  1.0000
  H   H7        1.0  0.9282373368746416  0.03658752717940206  0.2759384171257383  1.0000
  H   H8        1.0  0.5717626637930647  0.9634124723677779  0.7759384173291077  1.0000
  H   H9        1.0  0.9066530464280104  0.25108436180832644  0.18134614087562287  1.0000
  H   H10       1.0  0.5933469525507642  0.7489156377388537  0.681346140719016  1.0000
  H   H11       1.0  0.09334695345414996  0.751084361943807  0.3186538589677704  1.0000
  H   H12       1.0  0.40665304733139607  0.24891563760337315  0.8186538591711399  1.0000
  H   H13       1.0  0.7966400581667061  0.4682448203411145  0.13217518458953156  1.0000
  H   H14       1.0  0.7033599425010003  0.5317551792060656  0.6321751844329248  1.0000
  H   H15       1.0  0.20335994171545424  0.968244820476595  0.36782481561383784  1.0000
  H   H16       1.0  0.2966400590700919  0.03175517979436604  0.8678248154572311  1.0000
  H   H17       1.0  0.6640260593833293  0.4984105402605341  0.18804737615576728  1.0000
  H   H18       1.0  0.8359739412843771  0.5015894600104269  0.6880473763591367  1.0000
  H   H19       1.0  0.335973940498831  0.9984105396722337  0.31195262368762594  1.0000
  H   H20       1.0  0.16402605859778327  0.0015894598749464335  0.8119526238909954  1.0000
  H   H21       1.0  0.6264078523364167  0.38033017180342316  0.16262788264713657  1.0000
  H   H22       1.0  0.8735921466423578  0.619669827743757  0.662627882850506  1.0000
  H   H23       1.0  0.37359214754574355  0.8803301719389036  0.33737211719625665  1.0000
  H   H24       1.0  0.12640785323980253  0.11966982760827645  0.8373721173996261  1.0000
  H   H25       1.0  0.06674948433211085  0.94162832401088  0.18434649393070368  1.0000
  H   H26       1.0  0.4332505147645034  0.05837167553630004  0.684346493774097  1.0000
  H   H27       1.0  0.9332505155500495  0.4416283238753995  0.3156535062726658  1.0000
  H   H28       1.0  0.566749485117657  0.5583716756717806  0.815653506116059  1.0000
  H   H29       1.0  0.3591951048346563  0.8531477236461611  0.13547256696883744  1.0000
  H   H30       1.0  0.14080489426195797  0.14685227590101904  0.6354725671722069  1.0000
  H   H31       1.0  0.640804895047504  0.3531477242344615  0.3645274328745558  1.0000
  H   H32       1.0  0.8591951056202024  0.6468522760364995  0.8645274330779252  1.0000
  H   H33       1.0  0.7285618269804739  0.9278835225945751  0.11901028572404478  1.0000
  H   H34       1.0  0.7714381736872324  0.07211647695260504  0.6190102855674381  1.0000
  H   H35       1.0  0.2714381729016864  0.42788352245909456  0.3809897144793246  1.0000
  H   H36       1.0  0.22856182619492782  0.5721164770880856  0.8809897143227178  1.0000
  H   H37       1.0  0.8252685894236038  0.09167348402044435  0.15169334413878666  1.0000
  H   H38       1.0  0.6747314112441025  0.9083265155267357  0.6516933439821798  1.0000
  H   H39       1.0  0.17473141045855653  0.5916734841559249  0.3483066560645828  1.0000
  H   H40       1.0  0.32526858863805774  0.4083265161150362  0.848306655907976  1.0000
  H   H41       1.0  0.6956893849647146  0.16006226906071397  0.2897527022621214  1.0000
  H   H42       1.0  0.8043106157029918  0.8399377304864661  0.7897527024654909  1.0000
  H   H43       1.0  0.3043106149174457  0.6600622691961945  0.2102472975812718  1.0000
  H   H44       1.0  0.1956893841791685  0.33993773107476655  0.7102472977846412  1.0000
  H   H45       1.0  0.7419708986138178  0.1285374571616461  0.37707123707886736  1.0000
  H   H46       1.0  0.7580291020538885  0.8714625431093149  0.8770712372822368  1.0000
  H   H47       1.0  0.2580291012683425  0.6285374572971265  0.12292876276452587  1.0000
  H   H48       1.0  0.24197089782827175  0.3714625429738344  0.6229287629678953  1.0000
  H   H49       1.0  0.054697737968470814  0.21850544981200465  0.4006612346903368  1.0000
  H   H50       1.0  0.4453022611281434  0.7814945497351754  0.9006612345337301  1.0000
  H   H51       1.0  0.9453022619136895  0.7185054499474852  0.09933876551303258  1.0000
  H   H52       1.0  0.5546977387540168  0.28149455032347587  0.5993387653564258  1.0000
  H   H53       1.0  0.008876341708149011  0.24742403074127256  0.31377743449450535  1.0000
  H   H54       1.0  0.4911236573884652  0.7525759695296884  0.8137774343378985  1.0000
  H   H55       1.0  0.9911236581740113  0.7474240308767531  0.1862225657088641  1.0000
  H   H56       1.0  0.5088763424936951  0.25257596939420796  0.6862225655522574  1.0000
  H   H57       1.0  0.7570252668394176  0.20308855444990395  0.4554188942151576  1.0000
  H   H58       1.0  0.7429747321393569  0.7969114450972762  0.9554188940585507  1.0000
  H   H59       1.0  0.24297473304274264  0.7030885545853844  0.04458110598821184  1.0000
  H   H60       1.0  0.25702526774280343  0.29691144496179567  0.544581105831605  1.0000
  H   H61       1.0  0.7892707418904013  0.15693041606209776  0.5408831552527386  1.0000
  H   H62       1.0  0.7107292587773051  0.8430695834850823  0.04088315540934533  1.0000
  H   H63       1.0  0.21072925799175912  0.6569304161975783  0.9591168446374173  1.0000
  H   H64       1.0  0.2892707411048551  0.3430695833496018  0.4591168447940241  1.0000
  H   H65       1.0  0.465049400770705  0.07618039623793281  0.5826448397849894  1.0000
  H   H66       1.0  0.03495060001484104  0.9238196033092473  0.08264483994159617  1.0000
  H   H67       1.0  0.5349505991114553  0.5761803963734133  0.9173551601051665  1.0000
  H   H68       1.0  0.9650494015562511  0.42381960317376677  0.4173551599017971  1.0000
  H   H69       1.0  0.11403511693623329  0.04123169586060705  0.5376887210278192  1.0000
  H   H70       1.0  0.3859648838493128  0.958768304410354  0.037688720824449705  1.0000
  H   H71       1.0  0.8859648846348588  0.5412316959960876  0.962311279222313  1.0000
  H   H72       1.0  0.6140351160328475  0.4587683042748735  0.46231127901894353  1.0000
  H   H73       1.0  0.08447742658595578  0.08453019092170726  0.45114595328728924  1.0000
  H   H74       1.0  0.41552257251065844  0.9154698086254729  0.9511459531306825  1.0000
  H   H75       1.0  0.9155225732962045  0.5845301910571878  0.048854046916080245  1.0000
  H   H76       1.0  0.5844774273715019  0.4154698092137733  0.5488540467594735  1.0000
  H   H77       1.0  0.412952877923866  0.24158805178071563  0.10552055909200993  1.0000
  H   H78       1.0  0.08704712117274821  0.7584119477664645  0.6055205589354031  1.0000
  H   H79       1.0  0.5870471219582942  0.7415880519161961  0.3944794407513833  1.0000
  H   H80       1.0  0.912952878709412  0.25841194763098396  0.8944794409547527  1.0000
  H   H81       1.0  0.20325557755056486  0.09022197896555648  0.09125244871673958  1.0000
  H   H82       1.0  0.29674442323498124  0.9097780213054045  0.591252448920109  1.0000
  H   H83       1.0  0.7967444240205273  0.590221979101037  0.4087475511266536  1.0000
  H   H84       1.0  0.7032555766471792  0.40977802116992407  0.9087475513300232  1.0000
  H   H85       1.0  0.8273546330454239  0.09424502127427609  0.050169523073643696  1.0000
  H   H86       1.0  0.6726453676222826  0.9057549782729041  0.5501695229170369  1.0000
  H   H87       1.0  0.17264536683673645  0.5942450214097565  0.44983047712972574  1.0000
  H   H88       1.0  0.32735463225987776  0.4057549781374235  0.949830476973119  1.0000
  H   H89       1.0  0.664612282556514  0.25254850769747356  0.024670564098251958  1.0000
  H   H90       1.0  0.8353877164222605  0.7474514925734875  0.5246705639416452  1.0000
  H   H91       1.0  0.3353877173256463  0.752548507832954  0.47532943574514125  1.0000
  H   H92       1.0  0.16461228345989976  0.24745149243800696  0.9753294359485107  1.0000
  H   H93       1.0  0.8776411310223975  0.40419192106768426  0.03877376109548284  1.0000
  H   H94       1.0  0.6223588679563771  0.5958080792032767  0.5387737612988522  1.0000
  H   H95       1.0  0.12235886885976281  0.9041919212031648  0.4612262387479104  1.0000
  H   H96       1.0  0.37764113192578325  0.09580807906779622  0.9612262385913037  1.0000
  H   H97       1.0  0.304770590435953  0.4439067327403579  0.11943909405672948  1.0000
  H   H98       1.0  0.19522941034959307  0.5560932675306032  0.6194390942600989  1.0000
  H   H99       1.0  0.6952294094462074  0.9439067321520574  0.38056090578666374  1.0000
  H   H100      1.0  0.804770591221499  0.05609326739512264  0.880560905630057  1.0000
  H   H101      1.0  0.2110127722231982  0.4871855945194588  0.06273483909586937  1.0000
  H   H102      1.0  0.2889872285623479  0.5128144050277212  0.5627348389392626  1.0000
  H   H103      1.0  0.788987227658962  0.9871855946549394  0.4372651611075001  1.0000
  H   H104      1.0  0.7110127713198124  0.012814405616021722  0.9372651609508933  1.0000
  H   H105      1.0  0.4633467058300315  0.41938604678688046  0.06683447416050196  1.0000
  H   H106      1.0  0.03665329326658266  0.5806139527602996  0.5668344740038952  1.0000
  H   H107      1.0  0.5366532940521287  0.919386046922361  0.4331655256828913  1.0000
  H   H108      1.0  0.9633467066155778  0.0806139533486001  0.9331655258862607  1.0000
  B   B1        1.0  0.30809438802034383  0.20661182456637017  0.2377430038773026  1.0000
  B   B2        1.0  0.19190561107627038  0.7933881749808099  0.7377430037206958  1.0000
  B   B3        1.0  0.6919056118618163  0.7066118247018507  0.26225699632606686  1.0000
  B   B4        1.0  0.8080943888058899  0.2933881748453294  0.7622569961694601  1.0000
  C   C1        1.0  0.24890422817385582  0.395881636138307  0.23793742162489098  1.0000
  C   C2        1.0  0.25109577261169025  0.6041183641326541  0.7379374218282604  1.0000
  C   C3        1.0  0.7510957717083045  0.8958816355500065  0.26206257821850226  1.0000
  C   C4        1.0  0.74890422727047  0.10411836399717353  0.7620625784218716  1.0000
  C   C5        1.0  0.09458164369437186  0.4594279053950001  0.21922407383178963  1.0000
  C   C6        1.0  0.4054183570911742  0.54057209415218  0.7192240736751828  1.0000
  C   C7        1.0  0.9054183561877884  0.9594279055304806  0.2807759260116036  1.0000
  C   C8        1.0  0.5945816427909861  0.04057209474048038  0.7807759262149732  1.0000
  C   C9        1.0  0.0005616897493472814  0.31074611463952656  0.19666211857932522  1.0000
  C   C10       1.0  0.4994383093472669  0.6892538856314344  0.6966621184227185  1.0000
  C   C11       1.0  0.999438310132813  0.810746114775007  0.30333788162404424  1.0000
  C   C12       1.0  0.5005616905348934  0.18925388549595393  0.8033378814674375  1.0000
  C   C13       1.0  0.7448526807808364  0.4403817610148826  0.16746235333384868  1.0000
  C   C14       1.0  0.75514731988687  0.5596182392560785  0.6674623535372182  1.0000
  C   C15       1.0  0.25514732079025576  0.9403817604265822  0.33253764650954454  1.0000
  C   C16       1.0  0.2448526799952903  0.05961823912059793  0.832537646712914  1.0000
  C   C17       1.0  0.28734143711306426  0.06436819707274515  0.19521834258330398  1.0000
  C   C18       1.0  0.21265856367248182  0.9356318031982159  0.6952183424266972  1.0000
  C   C19       1.0  0.7126585644580279  0.5643681972082256  0.3047816576200654  1.0000
  C   C20       1.0  0.7873414362096784  0.43563180306273536  0.8047816574634586  1.0000
  C   C21       1.0  0.23165472146347635  0.9735245122571249  0.17726270222029109  1.0000
  C   C22       1.0  0.26834527763313787  0.026475488013836177  0.6772627020636844  1.0000
  C   C23       1.0  0.7683452784186839  0.4735245121216443  0.3227372979830783  1.0000
  C   C24       1.0  0.7316547222490224  0.5264754881493167  0.8227372978264715  1.0000
  C   C25       1.0  0.3953560457594518  0.925143726536167  0.14944419446375887  1.0000
  C   C26       1.0  0.10464395502609422  0.07485627301101305  0.6494441946671282  1.0000
  C   C27       1.0  0.6046439541227084  0.42514372640068654  0.3505558053796344  1.0000
  C   C28       1.0  0.895356044856066  0.5748562731464936  0.8505558055830039  1.0000
  C   C29       1.0  0.604607865027255  0.9675098925780715  0.14012622808836256  1.0000
  C   C30       1.0  0.8953921356404514  0.03249010769288956  0.6401262282917319  1.0000
  C   C31       1.0  0.3953921348549054  0.46750989244259095  0.35987377175503066  1.0000
  C   C32       1.0  0.10460786424170891  0.5324901078283701  0.8598737715984239  1.0000
  C   C33       1.0  0.6609684205668396  0.059228147245663956  0.15859959558588774  1.0000
  C   C34       1.0  0.8390315784119349  0.940771853025297  0.6585995957892572  1.0000
  C   C35       1.0  0.33903157931532074  0.5592281466573635  0.34140040425750545  1.0000
  C   C36       1.0  0.1609684214702253  0.4407718528898165  0.8414004044608749  1.0000
  C   C37       1.0  0.5007860448620108  0.106135402533701  0.186537671238122  1.0000
  C   C38       1.0  0.9992139558056955  0.89386459773726  0.6865376710815152  1.0000
  C   C39       1.0  0.4992139550201494  0.6061354019454005  0.31346232896524745  1.0000
  C   C40       1.0  0.0007860440764647815  0.3938645976017795  0.8134623288086407  1.0000
  C   C41       1.0  0.3484631607421386  0.2032538783227355  0.29475863249412426  1.0000
  C   C42       1.0  0.15153683835447562  0.7967461219482255  0.7947586323375174  1.0000
  C   C43       1.0  0.6515368391400217  0.703253878458216  0.2052413677092452  1.0000
  C   C44       1.0  0.8484631615276846  0.296746121812745  0.7052413675526384  1.0000
  C   C45       1.0  0.5543598797629182  0.17212784366997932  0.3141878304043836  1.0000
  C   C46       1.0  0.9456401192158563  0.8278721566009818  0.8141878306077531  1.0000
  C   C47       1.0  0.4456401201192421  0.6721278438054599  0.18581216943900963  1.0000
  C   C48       1.0  0.05435988066630398  0.3278721564655012  0.6858121692824029  1.0000
  C   C49       1.0  0.581036948242348  0.1553420324494212  0.36339407443770094  1.0000
  C   C50       1.0  0.9189630524253586  0.8446579670977589  0.8633940742810942  1.0000
  C   C51       1.0  0.41896305163981246  0.6553420325849018  0.13660592540569227  1.0000
  C   C52       1.0  0.08103694745680182  0.34465796696227835  0.6366059256090617  1.0000
  C   C53       1.0  0.3997202101539079  0.16899792606161845  0.3952521408303499  1.0000
  C   C54       1.0  0.10027978894270632  0.8310020742093426  0.8952521406737431  1.0000
  C   C55       1.0  0.6002797897282524  0.668997926197099  0.10474785937301956  1.0000
  C   C56       1.0  0.8997202109394539  0.33100207407386206  0.6047478592164127  1.0000
  C   C57       1.0  0.19460471499813556  0.20335421969448106  0.3762615678038306  1.0000
  C   C58       1.0  0.3053952857874105  0.796645779852699  0.8762615676472238  1.0000
  C   C59       1.0  0.8053952865729567  0.7033542198299616  0.12373843239953886  1.0000
  C   C60       1.0  0.6946047140947498  0.2966457804409995  0.623738432242932  1.0000
  C   C61       1.0  0.17044801754018463  0.22028498107796152  0.3271447598581445  1.0000
  C   C62       1.0  0.3295519815564296  0.7797150191929996  0.8271447597015377  1.0000
  C   C63       1.0  0.8295519823419756  0.720284981213442  0.17285524034522495  1.0000
  C   C64       1.0  0.6704480183257306  0.279715019057519  0.6728552401886182  1.0000
  C   C65       1.0  0.4196812901698915  0.14533145217338483  0.4468339455820158  1.0000
  C   C66       1.0  0.08031870892672276  0.8546685473737953  0.9468339457853853  1.0000
  C   C67       1.0  0.5803187097122688  0.6453314523088652  0.05316605426137744  1.0000
  C   C68       1.0  0.9196812909554376  0.3546685479620957  0.5531660541047707  1.0000
  C   C69       1.0  0.6175629365829244  0.1652761619152483  0.4728610231249713  1.0000
  C   C70       1.0  0.882437064084782  0.8347238376319318  0.9728610229683646  1.0000
  C   C71       1.0  0.38243706498816776  0.6652761620507288  0.0271389770783981  1.0000
  C   C72       1.0  0.11756293579737831  0.3347238374964513  0.5271389769217913  1.0000
  C   C73       1.0  0.6346551530714964  0.14021155313168085  0.5213556759195882  1.0000
  C   C74       1.0  0.865344845907278  0.8597884471392802  0.02135567607619498  1.0000
  C   C75       1.0  0.3653448468106638  0.6402115532671614  0.9786443239705677  1.0000
  C   C76       1.0  0.1346551539748822  0.35978844700379964  0.4786443237671983  1.0000
  C   C77       1.0  0.45379595843972115  0.09562657290052612  0.5447505869476842  1.0000
  C   C78       1.0  0.04620404234582496  0.9043734273704349  0.044750586744314744  1.0000
  C   C79       1.0  0.5462040414424392  0.5956265730360066  0.9552494129424717  1.0000
  C   C80       1.0  0.9537959575363354  0.4043734272349544  0.45524941309907846  1.0000
  C   C81       1.0  0.25528276467877553  0.07612455291887897  0.5194594634728709  1.0000
  C   C82       1.0  0.24471723610677054  0.923875447352082  0.019459463269501407  1.0000
  C   C83       1.0  0.7447172368923166  0.5761245530543595  0.9805405364172851  1.0000
  C   C84       1.0  0.7552827637753898  0.42387544721660153  0.48054053657389184  1.0000
  C   C85       1.0  0.2388316295583256  0.10076440433900125  0.47099340142819973  1.0000
  C   C86       1.0  0.2611683695382887  0.8992355959319598  0.9709934016315692  1.0000
  C   C87       1.0  0.7611683703238348  0.6007644044744818  0.029006598415193496  1.0000
  C   C88       1.0  0.7388316303438717  0.39923559579647927  0.5290065986185629  1.0000
  C   C89       1.0  0.1596094224690728  0.33394851610699294  0.07337779220011192  1.0000
  C   C90       1.0  0.3403905783164733  0.6660514834401872  0.5733777924034814  1.0000
  C   C91       1.0  0.8403905774130875  0.8339485162424735  0.42662220764328135  1.0000
  C   C92       1.0  0.659609421565687  0.16605148330470662  0.9266222078466507  1.0000
  C   C93       1.0  0.24817569053744604  0.24444248243703307  0.08798727088848123  1.0000
  C   C94       1.0  0.2518243085591682  0.755557517833928  0.5879872710918507  1.0000
  C   C95       1.0  0.7518243093447143  0.7444424818487326  0.41201272895491203  1.0000
  C   C96       1.0  0.7481756913229921  0.2555575176984474  0.9120127291582815  1.0000
  C   C97       1.0  0.1298651304849889  0.1587756977607266  0.07972481521623492  1.0000
  C   C98       1.0  0.37013487030055714  0.8412243017864535  0.5797248154196043  1.0000
  C   C99       1.0  0.8701348693971714  0.6587756978962072  0.4202751846271583  1.0000
  C   C100      1.0  0.6298651295816031  0.34122430165097295  0.9202751848305277  1.0000
  C   C101      1.0  0.9192924160893264  0.16119876365732327  0.05692629980209887  1.0000
  C   C102      1.0  0.58070758457838  0.8388012366136378  0.5569262996454921  1.0000
  C   C103      1.0  0.08070758379283394  0.6611987637928038  0.44307370040127053  1.0000
  C   C104      1.0  0.4192924153037803  0.33880123647815724  0.9430737002446639  1.0000
  C   C105      1.0  0.8276526214226902  0.24984503965241467  0.04278490321013598  1.0000
  C   C106      1.0  0.6723473792450162  0.7501549598947654  0.5427849030535292  1.0000
  C   C107      1.0  0.17234737845947015  0.7498450397878951  0.4572150969932334  1.0000
  C   C108      1.0  0.3276526223260759  0.2501549597592849  0.9572150968366268  1.0000
  C   C109      1.0  0.9477701916016869  0.3353364891178149  0.05093927278765061  1.0000
  C   C110      1.0  0.5522298073770876  0.6646635111531463  0.55093927299102  1.0000
  C   C111      1.0  0.052229808280473446  0.8353364892532954  0.4490607270557426  1.0000
  C   C112      1.0  0.44777019250507266  0.16466351101766566  0.9490607272591121  1.0000
  C   C113      1.0  0.2907109895498011  0.4257200326379583  0.08100639709445408  1.0000
  C   C114      1.0  0.20928901123574492  0.5742799669092218  0.5810063972978236  1.0000
  C   C115      1.0  0.7092890103323591  0.9257200327734388  0.41899360274893915  1.0000
  C   C116      1.0  0.7907109886464154  0.07427996749752225  0.9189936029523086  1.0000
  N   N1        1.0  0.18774440562044417  0.3036428820924882  0.22334701159594614  1.0000
  N   N2        1.0  0.3122555951651019  0.6963571181784729  0.7233470114393394  1.0000
  N   N3        1.0  0.8122555942617162  0.8036428815041877  0.2766529886074233  1.0000
  N   N4        1.0  0.6877444047170583  0.19635711804299236  0.7766529884508164  1.0000
  N   N5        1.0  0.9400208656624736  0.4044151416261195  0.19376646064314396  1.0000
  N   N6        1.0  0.5599791350052329  0.5955848579210605  0.6937664604865372  1.0000
  N   N7        1.0  0.059979134219686814  0.9044151417616001  0.3062335395602255  1.0000
  N   N8        1.0  0.4400208648769274  0.09558485850936094  0.8062335394036186  1.0000
  O   O1        1.0  0.15669697774458713  0.12455937757298692  0.2223617502488084  1.0000
  O   O2        1.0  0.3433030213520271  0.8754406219741931  0.7223617500922016  1.0000
  O   O3        1.0  0.8433030221375732  0.6245593777084675  0.27763824995456104  1.0000
  O   O4        1.0  0.6566969785301332  0.3754406218387127  0.7776382497979543  1.0000
  O   O5        1.0  0.5194765803038442  0.1939461957431436  0.2086663911705574  1.0000
  O   O6        1.0  0.9805234186749304  0.8060538045278174  0.7086663910139507  1.0000
  O   O7        1.0  0.4805234195783162  0.6939461951548431  0.29133360867283586  1.0000
  O   O8        1.0  0.01947658120722994  0.3060538043923369  0.7913336088762052  1.0000
