data_image0
_chemical_formula_structural       H88C80N4O16F8I4
_chemical_formula_sum              "H88 C80 N4 O16 F8 I4"
_cell_length_a       4.3614115657164305
_cell_length_b       18.630314927955837
_cell_length_c       24.4955311656226
_cell_angle_alpha    90.0
_cell_angle_beta     93.24650346808666
_cell_angle_gamma    90.0

_space_group_name_H-M_alt    "P 1"
_space_group_IT_number       1

loop_
  _space_group_symop_operation_xyz
  'x, y, z'

loop_
  _atom_site_type_symbol
  _atom_site_label
  _atom_site_symmetry_multiplicity
  _atom_site_fract_x
  _atom_site_fract_y
  _atom_site_fract_z
  _atom_site_occupancy
  H   H1        1.0  0.9913520888480635  0.2625735726377623  0.9134677813285986  1.0000
  H   H2        1.0  0.5086479106689435  0.7625735724242438  0.5865322186267219  1.0000
  H   H3        1.0  0.0086479108735683  0.7374264274719601  0.08653221877791305  1.0000
  H   H4        1.0  0.49135208892180693  0.23742642768547867  0.4134677810708958  1.0000
  H   H5        1.0  0.2287253526302302  0.33518314071168354  0.9392395301831934  1.0000
  H   H6        1.0  0.27127464768754256  0.8351831410349246  0.5607604698968522  1.0000
  H   H7        1.0  0.7712746470914017  0.6648168593980388  0.06076046992331823  1.0000
  H   H8        1.0  0.7287253520340893  0.16481685907479787  0.4392395302096594  1.0000
  H   H9        1.0  0.3380213256469969  0.24393001071499507  0.9534501028585919  1.0000
  H   H10       1.0  0.16197867237798705  0.7439300105014764  0.5465498972216007  1.0000
  H   H11       1.0  0.6619786740746348  0.7560699893947274  0.0465498972479197  1.0000
  H   H12       1.0  0.8380213273436447  0.25606998907148637  0.4534501028849108  1.0000
  H   H13       1.0  0.24721277976552028  0.18579700898162968  0.8414253467321567  1.0000
  H   H14       1.0  0.25278722055225245  0.6857970087681111  0.6585746533478889  1.0000
  H   H15       1.0  0.7527872199561115  0.8142029911280927  0.1585746533743548  1.0000
  H   H16       1.0  0.7472127791693793  0.31420299134161134  0.34142534675862285  1.0000
  H   H17       1.0  0.5874098057277166  0.1814812274013973  0.8845589441488776  1.0000
  H   H18       1.0  0.9125901937892904  0.6814812277246384  0.6154410558064429  1.0000
  H   H19       1.0  0.41259019399391517  0.8185187727083251  0.11544105595763408  1.0000
  H   H20       1.0  0.08740980593234139  0.31851877238508414  0.3845589443000686  1.0000
  H   H21       1.0  0.8503077958363181  0.25970876867677767  0.8156182803265961  1.0000
  H   H22       1.0  0.6496922036806889  0.7597087684632591  0.6843817196287243  1.0000
  H   H23       1.0  0.14969220388531373  0.7402912314329447  0.1843817197799155  1.0000
  H   H24       1.0  0.35030779591006145  0.24029123110970377  0.3156182800688933  1.0000
  H   H25       1.0  0.7649636544881318  0.16861979854597586  0.7973671580566971  1.0000
  H   H26       1.0  0.7350363450288754  0.6686197983324573  0.7026328418986234  1.0000
  H   H27       1.0  0.2350363452335001  0.8313802015637466  0.20263284204981447  1.0000
  H   H28       1.0  0.2649636546927565  0.3313802012405056  0.2973671582078883  1.0000
  H   H29       1.0  0.8610429214090848  0.22431849521389405  0.7081907626463919  1.0000
  H   H30       1.0  0.6389570781079222  0.7243184950003755  0.7918092373089285  1.0000
  H   H31       1.0  0.13895707831254706  0.7756815048958283  0.29180923746011966  1.0000
  H   H32       1.0  0.3610429216137095  0.27568150510934697  0.2081907627975831  1.0000
  H   H33       1.0  0.826500709127292  0.31456585047878327  0.7305553008462413  1.0000
  H   H34       1.0  0.673499290389715  0.8145658502652647  0.7694446991090791  1.0000
  H   H35       1.0  0.17349929059433974  0.6854341496309391  0.2694446992602703  1.0000
  H   H36       1.0  0.3265007093319168  0.18543414984445772  0.23055530099743246  1.0000
  H   H37       1.0  0.291816109680748  0.30984972622968876  0.6719238877410627  1.0000
  H   H38       1.0  0.20818389050614336  0.8098497265529297  0.828076111930089  1.0000
  H   H39       1.0  0.7081838899100025  0.6901502738800337  0.32807611195655506  1.0000
  H   H40       1.0  0.7918161090846071  0.19015027355679265  0.17192388776752865  1.0000
  H   H41       1.0  0.6438831286435162  0.32528556459914537  0.6405092704873521  1.0000
  H   H42       1.0  0.8561168708734909  0.8252855643856267  0.8594907294679683  1.0000
  H   H43       1.0  0.3561168709472342  0.6747144355105771  0.35949072921026554  1.0000
  H   H44       1.0  0.14388312884814095  0.17471443572409565  0.1405092706385433  1.0000
  H   H45       1.0  0.4166542919969524  0.2855645656325865  0.5605410123328206  1.0000
  H   H46       1.0  0.08334570818993892  0.7855645654190678  0.9394589873383311  1.0000
  H   H47       1.0  0.583345707593798  0.714435434477136  0.43945898736479705  1.0000
  H   H48       1.0  0.9166542914008116  0.21443543469065451  0.06054101235928667  1.0000
  H   H49       1.0  0.06711099085282228  0.2540461741147449  0.5863928990268928  1.0000
  H   H50       1.0  0.4328890094649504  0.7540461739012263  0.9136071010531527  1.0000
  H   H51       1.0  0.9328890088688094  0.7459538259949775  0.4136071010796188  1.0000
  H   H52       1.0  0.5671109901258  0.2459538262084961  0.08639289864446492  1.0000
  H   H53       1.0  0.23415463078412613  0.19363315402612025  0.500391788484223  1.0000
  H   H54       1.0  0.26584536953364657  0.6936331538126016  0.9996082115958225  1.0000
  H   H55       1.0  0.7658453689375057  0.8063668460836022  0.4996082116222885  1.0000
  H   H56       1.0  0.734154632480774  0.30636684629712074  0.00039178851054192987  1.0000
  H   H57       1.0  0.547896382201276  0.15457693662916414  0.5404247802255004  1.0000
  H   H58       1.0  0.952103617315731  0.6545769369524052  0.9595752197298201  1.0000
  H   H59       1.0  0.45210361752035577  0.8454230634805583  0.45957521988101113  1.0000
  H   H60       1.0  0.04789638240590082  0.3454230631573173  0.0404247803766916  1.0000
  H   H61       1.0  0.34790327644559754  0.09196094894934678  0.4648576467017928  1.0000
  H   H62       1.0  0.15209672348065903  0.5919609492725877  0.03514235355590997  1.0000
  H   H63       1.0  0.6520967232760343  0.9080390511603756  0.5351423534047188  1.0000
  H   H64       1.0  0.8479032762409727  0.40803905083713465  0.9648576465506016  1.0000
  H   H65       1.0  0.7540938194694902  0.07762729699377567  0.6182688888886124  1.0000
  H   H66       1.0  0.7459061800475167  0.5776272973170167  0.8817311110667079  1.0000
  H   H67       1.0  0.24590618012126023  0.9223727031159468  0.3817311108090052  1.0000
  H   H68       1.0  0.254093819674115  0.4223727027927058  0.11826888903980368  1.0000
  H   H69       1.0  0.5594177263089497  0.918611663634276  0.6178417561770936  1.0000
  H   H70       1.0  0.9405822732080573  0.4186116633110351  0.8821582437782267  1.0000
  H   H71       1.0  0.4405822734126821  0.08138833647544631  0.38215824392941794  1.0000
  H   H72       1.0  0.05941772651357448  0.5813883362619278  0.11784175632828481  1.0000
  H   H73       1.0  0.45451591320476514  0.10795731729590693  0.6782330360785902  1.0000
  H   H74       1.0  0.04548408711300763  0.6079573170823883  0.8217669640014554  1.0000
  H   H75       1.0  0.5454840865168666  0.8920426828138155  0.32176696402792143  1.0000
  H   H76       1.0  0.9545159126086241  0.39204268249057445  0.17823303610505617  1.0000
  H   H77       1.0  0.19561098177284295  0.12532266035377107  0.7633155167056402  1.0000
  H   H78       1.0  0.3043890185449297  0.6253226601402525  0.7366844833744053  1.0000
  H   H79       1.0  0.8043890202415774  0.8746773397559514  0.23668448340072415  1.0000
  H   H80       1.0  0.6956109811767021  0.37467733943271037  0.26331551673210635  1.0000
  H   H81       1.0  0.038955230104941035  0.9078694109791859  0.7809811680138744  1.0000
  H   H82       1.0  0.46104477008195033  0.4078694111927045  0.7190188316572772  1.0000
  H   H83       1.0  0.9610447694858093  0.0921305891305365  0.21901883168374325  1.0000
  H   H84       1.0  0.5389552295088001  0.5921305889170179  0.28098116804034046  1.0000
  H   H85       1.0  0.2959694471890534  0.8791146002273755  0.6955941499171909  1.0000
  H   H86       1.0  0.20403055312871937  0.379114600440894  0.8044058501628546  1.0000
  H   H87       1.0  0.7040305525325784  0.120885399882347  0.30440585018932054  1.0000
  H   H88       1.0  0.7959694465929125  0.6208853996688284  0.1955941499436571  1.0000
  C   C1        1.0  0.6255898412390178  0.06493488836223005  0.986420840287167  1.0000
  C   C2        1.0  0.8744101605707779  0.5649348881487115  0.5135791596680062  1.0000
  C   C3        1.0  0.374410158482614  0.9350651117474923  0.013579159819344534  1.0000
  C   C4        1.0  0.1255898414436426  0.435065111961011  0.48642084043835826  1.0000
  C   C5        1.0  0.5266702245705714  0.9427391296346226  0.9654425945340885  1.0000
  C   C6        1.0  0.9733297749464356  0.4427391293113815  0.5345574054212318  1.0000
  C   C7        1.0  0.47332977502017887  0.05726087047509994  0.034557405163529016  1.0000
  C   C8        1.0  0.026670224775196295  0.5572608702615813  0.46544259468527976  1.0000
  C   C9        1.0  0.6550704154239971  0.007817545788313753  0.9504739720508604  1.0000
  C   C10       1.0  0.8449295840930099  0.5078175461115547  0.54952602790446  1.0000
  C   C11       1.0  0.34492958429763476  0.9921824537846491  0.04952602805565128  1.0000
  C   C12       1.0  0.15507041549774048  0.4921824539981677  0.4504739717931576  1.0000
  C   C13       1.0  0.22993851430341608  0.28054817324408404  0.9225338194450273  1.0000
  C   C14       1.0  0.27006148601435664  0.7805481735673251  0.5774661806350182  1.0000
  C   C15       1.0  0.7700614854182157  0.7194518268656384  0.07746618066148425  1.0000
  C   C16       1.0  0.7299385135763938  0.21945182654239737  0.4225338190625995  1.0000
  C   C17       1.0  0.4624909356834598  0.21451608979529505  0.8531231680824335  1.0000
  C   C18       1.0  0.037509064634313  0.714516090118536  0.6468768319976121  1.0000
  C   C19       1.0  0.537509064038172  0.7854839097776678  0.1468768320240782  1.0000
  C   C20       1.0  0.9624909350873189  0.28548390999118634  0.35312316810889943  1.0000
  C   C21       1.0  0.6618575142657751  0.22167269077147775  0.8050447728737533  1.0000
  C   C22       1.0  0.8381424852512319  0.7216726910947188  0.6949552270815671  1.0000
  C   C23       1.0  0.33814248545585673  0.778327308801485  0.19495522723275835  1.0000
  C   C24       1.0  0.1618575143395185  0.2783273090150037  0.30504477261605045  1.0000
  C   C25       1.0  0.6933476665547256  0.267070734941459  0.7160055642816783  1.0000
  C   C26       1.0  0.8066523352550701  0.7670707347279404  0.7839944356734949  1.0000
  C   C27       1.0  0.30665233316690615  0.7329292651682634  0.28399443582483325  1.0000
  C   C28       1.0  0.19334766675935047  0.23292926484502244  0.2160055644328695  1.0000
  C   C29       1.0  0.5144459985286481  0.2852312110959607  0.6632637325012716  1.0000
  C   C30       1.0  0.9855540011192403  0.7852312114192018  0.8367362678629428  1.0000
  C   C31       1.0  0.4855540011929837  0.7147687884770021  0.33673626760524  1.0000
  C   C32       1.0  0.014445998602391527  0.21476878869052068  0.1632637322435688  1.0000
  C   C33       1.0  0.30768781821535823  0.2393297363593858  0.5799218400949373  1.0000
  C   C34       1.0  0.1923121819715331  0.7393297366826268  0.9200781595762143  1.0000
  C   C35       1.0  0.6923121836681809  0.7606702632135771  0.4200781596025332  1.0000
  C   C36       1.0  0.8076878176192174  0.26067026342709565  0.07992184012140335  1.0000
  C   C37       1.0  0.31357528460150547  0.17624978926538648  0.541827660936746  1.0000
  C   C38       1.0  0.18642471558538587  0.6762497890518679  0.9581723387344058  1.0000
  C   C39       1.0  0.686424714989245  0.823750210844336  0.45817233876087166  1.0000
  C   C40       1.0  0.8135752840053646  0.323750210521095  0.04182766096321203  1.0000
  C   C41       1.0  0.06086044192872647  0.06291135198371019  0.5297087105360598  1.0000
  C   C42       1.0  0.43913955838904617  0.5629113517701916  0.9702912895439856  1.0000
  C   C43       1.0  0.9391395577929054  0.9370886481260123  0.47029128957045174  1.0000
  C   C44       1.0  0.5608604413325856  0.43708864833953076  0.029708710562525883  1.0000
  C   C45       1.0  0.18983148359616941  0.05248691038135295  0.47974657900330764  1.0000
  C   C46       1.0  0.31016851619920577  0.5524869101678344  0.02025342084550117  1.0000
  C   C47       1.0  0.8101685159945811  0.9475130897283696  0.52025342069431  1.0000
  C   C48       1.0  0.6898314835224261  0.44751308994188804  0.9797465792610105  1.0000
  C   C49       1.0  0.8667628906982211  0.010066578623347928  0.5512174692454287  1.0000
  C   C50       1.0  0.6332371088187859  0.5100665789465889  0.9487825307098917  1.0000
  C   C51       1.0  0.13323710889252932  0.9899334214863745  0.44878253045218897  1.0000
  C   C52       1.0  0.3667628909028459  0.48993342116313354  0.05121746939661989  1.0000
  C   C53       1.0  0.7275882981113011  0.023235455314307835  0.6023162238853567  1.0000
  C   C54       1.0  0.7724117014057059  0.5232354551007893  0.8976837760699639  1.0000
  C   C55       1.0  0.2724117016103307  0.9767645447954146  0.3976837762211549  1.0000
  C   C56       1.0  0.2275882981850445  0.4767645450089331  0.10231622362765384  1.0000
  C   C57       1.0  0.5709871913218857  0.9746116761963006  0.630948587031858  1.0000
  C   C58       1.0  0.9290128081951213  0.4746116764098192  0.8690514129234623  1.0000
  C   C59       1.0  0.4290128083997461  0.025388323376662206  0.36905141307465356  1.0000
  C   C60       1.0  0.07098719139562915  0.5253883236999032  0.13094858677415527  1.0000
  C   C61       1.0  0.41501657053346774  0.9906597124831894  0.6801503048159566  1.0000
  C   C62       1.0  0.0849834274915162  0.49065971215994836  0.819849695264236  1.0000
  C   C63       1.0  0.5849834291881639  0.009340287626533056  0.3198496952905549  1.0000
  C   C64       1.0  0.9150165722301156  0.5093402874130145  0.18015030484227554  1.0000
  C   C65       1.0  0.37602447219270796  0.06099981800601229  0.6999830794649377  1.0000
  C   C66       1.0  0.12397552812506477  0.5609998183292533  0.800016920615108  1.0000
  C   C67       1.0  0.6239755275289238  0.9390001821037101  0.30001692064157404  1.0000
  C   C68       1.0  0.876024471596567  0.4390001817804691  0.1999830794914036  1.0000
  C   C69       1.0  0.22510650088175063  0.07116403749088265  0.7476792348359576  1.0000
  C   C70       1.0  0.27489349943602204  0.5711640378141236  0.7523207652440879  1.0000
  C   C71       1.0  0.7748934988398811  0.9288359620820803  0.25232076527055397  1.0000
  C   C72       1.0  0.7251065002856097  0.4288359622955987  0.24767923486242363  1.0000
  C   C73       1.0  0.13931254633129359  0.9503265118418813  0.757175080804171  1.0000
  C   C74       1.0  0.36068745385559775  0.45032651205539986  0.7428249188669805  1.0000
  C   C75       1.0  0.8606874532594568  0.04967348826784115  0.24282491889344654  1.0000
  C   C76       1.0  0.6393125480279415  0.5496734880543226  0.25717508083048995  1.0000
  C   C77       1.0  0.28658858741260157  0.9345285062183503  0.7099040561081763  1.0000
  C   C78       1.0  0.2134114129051711  0.43452850643186886  0.7900959439718692  1.0000
  C   C79       1.0  0.7134114123090302  0.06547149335461258  0.29009594399833527  1.0000
  C   C80       1.0  0.7865885868164607  0.5654714936778535  0.20990405613464239  1.0000
  N   N1        1.0  0.10945665921312238  0.01715170254693386  0.7765655683310126  1.0000
  N   N2        1.0  0.39054333868098035  0.5171517023334153  0.7234344313402863  1.0000
  N   N3        1.0  0.8905433403776281  0.9828482975627885  0.22343443136660518  1.0000
  N   N4        1.0  0.6094566609097701  0.48284829723954753  0.2765655683573314  1.0000
  O   O1        1.0  0.3997010834038045  0.2839586271331194  0.8746835922763465  1.0000
  O   O2        1.0  0.10029891678308683  0.7839586269196008  0.6253164073948052  1.0000
  O   O3        1.0  0.6002989161869459  0.716041372976603  0.12531640742127118  1.0000
  O   O4        1.0  0.8997010828076637  0.216041372653362  0.37468359230281256  1.0000
  O   O5        1.0  0.49070222479286163  0.24559651662861287  0.75700928793616  1.0000
  O   O6        1.0  0.009297775394029718  0.7455965164150943  0.7429907117349918  1.0000
  O   O7        1.0  0.5092977747978888  0.7544034834811096  0.24299071176145776  1.0000
  O   O8        1.0  0.9907022241967207  0.2544034836946281  0.25700928796262595  1.0000
  O   O9        1.0  0.4680170300773084  0.22227029902678927  0.6305872454029928  1.0000
  O   O10       1.0  0.031982970240464474  0.7222702993500303  0.8694127546770529  1.0000
  O   O11       1.0  0.5319829696443235  0.7777297005461735  0.3694127547035188  1.0000
  O   O12       1.0  0.9680170294811674  0.27772970075969217  0.1305872454294588  1.0000
  O   O13       1.0  0.11164086451757506  0.12265582137696737  0.5612448561667353  1.0000
  O   O14       1.0  0.3883591333765275  0.6226558217002084  0.9387551435045635  1.0000
  O   O15       1.0  0.8883591350731753  0.8773441781959954  0.4387551435308824  1.0000
  O   O16       1.0  0.6116408662142229  0.377344178409514  0.061244856193054156  1.0000
  F   F1        1.0  0.7473949390646217  0.13046660453134354  0.9750177667794274  1.0000
  F   F2        1.0  0.7526050604523852  0.630466604317825  0.5249822331758931  1.0000
  F   F3        1.0  0.2526050605261287  0.8695333955783789  0.02498223291819036  1.0000
  F   F4        1.0  0.24739493926924655  0.3695333957918975  0.4750177669306185  1.0000
  F   F5        1.0  0.545961380358872  0.8844532856110966  0.9321916071423945  1.0000
  F   F6        1.0  0.954038619158135  0.3844532852878556  0.567808392812926  1.0000
  F   F7        1.0  0.4540386193627599  0.11554671449862584  0.06780839296411724  1.0000
  F   F8        1.0  0.0459613804326153  0.6155467148218668  0.4321916068846916  1.0000
  I   I1        1.0  0.8628026993494347  0.01816471011406202  0.8739880856208805  1.0000
  I   I2        1.0  0.6371973001675724  0.518164710437303  0.6260119143344398  1.0000
  I   I3        1.0  0.1371973003721971  0.9818352899956604  0.126011914485631  1.0000
  I   I4        1.0  0.3628026994231781  0.48183528967241945  0.37398808536317785  1.0000
