data_image0
_chemical_formula_structural       H32C72N8F16I8
_chemical_formula_sum              "H32 C72 N8 F16 I8"
_cell_length_a       16.27657626008229
_cell_length_b       7.400095176619476
_cell_length_c       15.212776542788442
_cell_angle_alpha    90.0
_cell_angle_beta     111.06980209938907
_cell_angle_gamma    90.0

_space_group_name_H-M_alt    "P 1"
_space_group_IT_number       1

loop_
  _space_group_symop_operation_xyz
  'x, y, z'

loop_
  _atom_site_type_symbol
  _atom_site_label
  _atom_site_symmetry_multiplicity
  _atom_site_fract_x
  _atom_site_fract_y
  _atom_site_fract_z
  _atom_site_occupancy
  H   H1        1.0  0.42321884321140446  0.6116911299062286  0.9574907113493125  1.0000
  H   H2        1.0  0.5767811563034068  0.11169112967781782  0.5425092884676664  1.0000
  H   H3        1.0  0.5767811566845309  0.388308870550593  0.04250928850699978  1.0000
  H   H4        1.0  0.4232188435925285  0.8883088707790039  0.4574907113886458  1.0000
  H   H5        1.0  0.478534925237218  0.6052775083422853  0.1332077993517876  1.0000
  H   H6        1.0  0.5214650744264131  0.10527750946520842  0.36679220054667566  1.0000
  H   H7        1.0  0.5214650746587173  0.3947224907632024  0.8667922005045248  1.0000
  H   H8        1.0  0.47853492546952214  0.8947224909916134  0.6332077993096367  1.0000
  H   H9        1.0  0.3764226107324297  0.5008384097153054  0.2134175925120392  1.0000
  H   H10       1.0  0.6235773895446295  0.0008384094868945001  0.2865824073836064  1.0000
  H   H11       1.0  0.6235773891635055  0.49916159074151634  0.786582407344273  1.0000
  H   H12       1.0  0.3764226103513057  0.9991615896185932  0.713417592472706  1.0000
  H   H13       1.0  0.228244014060331  0.3912478732905464  0.19983624136840522  1.0000
  H   H14       1.0  0.7717559856033  0.8912478735189573  0.300163758530058  1.0000
  H   H15       1.0  0.7717559858356042  0.6087521271662754  0.8001637584879071  1.0000
  H   H16       1.0  0.2282440142926351  0.1087521269378645  0.6998362413262542  1.0000
  H   H17       1.0  0.07608971097573194  0.2995309042785273  0.10021320246628926  1.0000
  H   H18       1.0  0.9239102886878992  0.7995309045069382  0.39978679743217393  1.0000
  H   H19       1.0  0.9239102889202033  0.7004690948269604  0.899786797390023  1.0000
  H   H20       1.0  0.07608971120803608  0.20046909459854956  0.6002132024241383  1.0000
  H   H21       1.0  0.9127217783234803  0.27890774790586603  0.7870520968808379  1.0000
  H   H22       1.0  0.08727822119133082  0.7789077481342769  0.712947902936141  1.0000
  H   H23       1.0  0.08727822157245488  0.7210922525509557  0.21294790297547436  1.0000
  H   H24       1.0  0.9127217787046044  0.2210922523225448  0.2870520969201712  1.0000
  H   H25       1.0  0.00682711156000307  0.3832513315451154  0.6981040499809572  1.0000
  H   H26       1.0  0.9931728881939611  0.8832513317735262  0.8018959505404548  1.0000
  H   H27       1.0  0.9931728885750852  0.6167486675603724  0.3018959505797882  1.0000
  H   H28       1.0  0.006827111941127108  0.11674866733196149  0.19810405002029055  1.0000
  H   H29       1.0  0.1643396994638286  0.4670133244933141  0.7893020295204509  1.0000
  H   H30       1.0  0.8356603006644107  0.967013324721725  0.7106979702937105  1.0000
  H   H31       1.0  0.8356603004321067  0.5329866746121736  0.21069797033586138  1.0000
  H   H32       1.0  0.16433969984495264  0.03298667573509673  0.2893020295597842  1.0000
  C   C1        1.0  0.24274854726199724  0.9551498705492201  0.030953168797193703  1.0000
  C   C2        1.0  0.7572514530150621  0.4551498716721431  0.4690468310984519  1.0000
  C   C3        1.0  0.757251452633938  0.044850128556267695  0.9690468310591186  1.0000
  C   C4        1.0  0.24274854688087322  0.5448501287846786  0.5309531687578605  1.0000
  C   C5        1.0  0.31563271520765235  0.9939125855081158  0.11300268570816416  1.0000
  C   C6        1.0  0.6843672844559788  0.4939125852797049  0.38699731419029904  1.0000
  C   C7        1.0  0.6843672846882829  0.006087414948705924  0.8869973141481481  1.0000
  C   C8        1.0  0.3156327154399564  0.5060874151771168  0.6130026856660132  1.0000
  C   C9        1.0  0.3921685563089653  0.0631729982983216  0.10469522826559768  1.0000
  C   C10       1.0  0.607831443968094  0.5631729985267325  0.3953047716300479  1.0000
  C   C11       1.0  0.6078314435869698  0.9368270008071662  0.8953047715907145  1.0000
  C   C12       1.0  0.39216855592784133  0.4368270005787553  0.6046952282262644  1.0000
  C   C13       1.0  0.3978171212125455  0.09509167155353529  0.016867959088347356  1.0000
  C   C14       1.0  0.6021828790645137  0.5950916717819462  0.4831320408072982  1.0000
  C   C15       1.0  0.6021828792968178  0.9049083289032863  0.9831320407651474  1.0000
  C   C16       1.0  0.3978171208314215  0.40490832867487553  0.5168679590490141  1.0000
  C   C17       1.0  0.3269320617218851  0.05209128812530974  0.9357005655515854  1.0000
  C   C18       1.0  0.6730679386455073  0.5520912883537206  0.5642994349670092  1.0000
  C   C19       1.0  0.6730679381740501  0.947908712331512  0.06429943430472686  1.0000
  C   C20       1.0  0.326932061489581  0.4479087121031011  0.4357005655937364  1.0000
  C   C21       1.0  0.250199593406604  0.9833104421400299  0.9435070024936963  1.0000
  C   C22       1.0  0.7498004067216354  0.48331044191161915  0.5564929973204651  1.0000
  C   C23       1.0  0.7498004071027594  0.01668955831679174  0.05649299735979839  1.0000
  C   C24       1.0  0.2501995931742999  0.5166895571938687  0.4435070025358472  1.0000
  C   C25       1.0  0.3800137706338539  0.5680889852987592  0.9940930052852388  1.0000
  C   C26       1.0  0.6199862288809574  0.0680889850703483  0.5059069945317402  1.0000
  C   C27       1.0  0.6199862292620814  0.4319110138067286  0.00590699457107344  1.0000
  C   C28       1.0  0.38001377101497785  0.9319110140351394  0.4940930053245721  1.0000
  C   C29       1.0  0.4112028882476632  0.564386330218515  0.09292217121190716  1.0000
  C   C30       1.0  0.588797112029396  0.06438633134143817  0.40707782868373843  1.0000
  C   C31       1.0  0.5887971122617002  0.43561366888697267  0.9070778286415875  1.0000
  C   C32       1.0  0.41120288786653914  0.9356136691153835  0.5929221711725737  1.0000
  C   C33       1.0  0.3549351580648466  0.5064666900287251  0.1368797678558916  1.0000
  C   C34       1.0  0.6450648415987845  0.006466689800314271  0.3631202320425716  1.0000
  C   C35       1.0  0.6450648418310887  0.49353331042809656  0.8631202320004208  1.0000
  C   C36       1.0  0.35493515829715067  0.9935333106565074  0.6368797678137407  1.0000
  C   C37       1.0  0.2683329748014734  0.45385753964508824  0.08178589964893317  1.0000
  C   C38       1.0  0.7316670254755859  0.9538575398734991  0.4182141002467124  1.0000
  C   C39       1.0  0.7316670250944618  0.5461424608117335  0.9182141002073791  1.0000
  C   C40       1.0  0.2683329744203494  0.046142460583322616  0.5817858996095999  1.0000
  C   C41       1.0  0.20682585715855747  0.39424556851885745  0.12333622817047116  1.0000
  C   C42       1.0  0.7931741431185018  0.8942455687472682  0.3766637717251744  1.0000
  C   C43       1.0  0.7931741427373779  0.6057544305866303  0.8766637716858412  1.0000
  C   C44       1.0  0.20682585677743345  0.10575443035821945  0.6233362281311379  1.0000
  C   C45       1.0  0.12337647112861275  0.34382936965985395  0.0690456099974826  1.0000
  C   C46       1.0  0.8766235287741713  0.8438293698882648  0.4309543906054137  1.0000
  C   C47       1.0  0.8766235290064756  0.6561706294456338  0.9309543905632628  1.0000
  C   C48       1.0  0.1233764713609169  0.1561706305685569  0.5690456099553317  1.0000
  C   C49       1.0  0.09468756469600599  0.3519171156376484  0.9686202484965297  1.0000
  C   C50       1.0  0.9053124354322334  0.8519171158660592  0.5313797513176317  1.0000
  C   C51       1.0  0.9053124351999293  0.6480828834678394  0.03137975135978264  1.0000
  C   C52       1.0  0.09468756446370181  0.1480828832394285  0.46862024853868056  1.0000
  C   C53       1.0  0.9814277194950545  0.3165097926578248  0.8244088469911509  1.0000
  C   C54       1.0  0.01857228063318494  0.8165097928862357  0.6755911528230105  1.0000
  C   C55       1.0  0.018572280400880815  0.6834902064476629  0.17559115286516142  1.0000
  C   C56       1.0  0.9814277192627502  0.18349020621925205  0.3244088470333018  1.0000
  C   C57       1.0  0.034425273633548935  0.3748833837657886  0.7747123172125837  1.0000
  C   C58       1.0  0.9655747264946904  0.8748833839941994  0.7252876826015775  1.0000
  C   C59       1.0  0.9655747262623863  0.6251166166910331  0.2252876826437285  1.0000
  C   C60       1.0  0.03442527340124481  0.1251166164626223  0.27471231725473466  1.0000
  C   C61       1.0  0.12087758571781809  0.4215924046297474  0.8250193437012493  1.0000
  C   C62       1.0  0.8791224144104214  0.9215924048581582  0.6749806561129121  1.0000
  C   C63       1.0  0.8791224147915454  0.5784075944757404  0.17498065615224545  1.0000
  C   C64       1.0  0.12087758548551389  0.07840759559866346  0.3250193437434001  1.0000
  C   C65       1.0  0.15338327465364054  0.41199448618345436  0.9240425707327944  1.0000
  C   C66       1.0  0.8466167257137518  0.9119944864118653  0.5759574297858002  1.0000
  C   C67       1.0  0.8466167260948758  0.5880055142733673  0.07595742982513339  1.0000
  C   C68       1.0  0.15338327442133642  0.08800551404495648  0.42404257077494534  1.0000
  C   C69       1.0  0.24243129645316486  0.46309286275497563  0.9817525366088856  1.0000
  C   C70       1.0  0.7575687030616464  0.9630928629833865  0.5182474632080933  1.0000
  C   C71       1.0  0.7575687034427704  0.5369071363505121  0.018247463247426616  1.0000
  C   C72       1.0  0.24243129683428888  0.036907137473435235  0.48175253664821893  1.0000
  N   N1        1.0  0.29881166737002335  0.5196814808747899  0.939694319032246  1.0000
  N   N2        1.0  0.701188332758216  0.01968148199771313  0.5603056807819153  1.0000
  N   N3        1.0  0.701188332525912  0.4803185182306977  0.0603056808240663  1.0000
  N   N4        1.0  0.2988116677511474  0.9803185184591086  0.4396943190715793  1.0000
  N   N5        1.0  0.010291245214213061  0.3037445730565341  0.9176592328691224  1.0000
  N   N6        1.0  0.9897087549140262  0.803744573284945  0.5823407669450388  1.0000
  N   N7        1.0  0.9897087552951503  0.6962554274002877  0.08234076698437212  1.0000
  N   N8        1.0  0.010291244981909012  0.19625542717187675  0.4176592329112735  1.0000
  F   F1        1.0  0.4636465762717119  0.10476425930972393  0.18175704197845952  1.0000
  F   F2        1.0  0.5363534233919192  0.6047642595381348  0.3182429579200037  1.0000
  F   F3        1.0  0.5363534238633765  0.8952357397957639  0.818242958582286  1.0000
  F   F4        1.0  0.46364657650401603  0.3952357409186869  0.6817570419363085  1.0000
  F   F5        1.0  0.47095023620756304  0.16904596091579785  0.009616738826786693  1.0000
  F   F6        1.0  0.5290497643086493  0.6690459611442087  0.490383261773292  1.0000
  F   F7        1.0  0.5290497639275252  0.8309540395410239  0.9903832617339586  1.0000
  F   F8        1.0  0.47095023582643897  0.330954039312613  0.5096167387874534  1.0000
  F   F9        1.0  0.33320210467731837  0.07980797758736298  0.8505745137452927  1.0000
  F   F10       1.0  0.666797895450921  0.5798079778157739  0.6494254860688686  1.0000
  F   F11       1.0  0.6667978952186169  0.9201920215181248  0.14942548611101952  1.0000
  F   F12       1.0  0.33320210444501425  0.4201920212897139  0.35057451378744375  1.0000
  F   F13       1.0  0.18219021563570076  0.9464657052153687  0.862202381277307  1.0000
  F   F14       1.0  0.8178097838791105  0.44646570498695776  0.637797618539672  1.0000
  F   F15       1.0  0.8178097842602345  0.05353429524145309  0.13779761857900533  1.0000
  F   F16       1.0  0.18219021601682478  0.553534295469864  0.36220238131664023  1.0000
  I   I1        1.0  0.1225098283229797  0.8537030253286504  0.03511487040462935  1.0000
  I   I2        1.0  0.8774901713406514  0.3537030251002395  0.4648851294938338  1.0000
  I   I3        1.0  0.8774901715729556  0.14629697512817133  0.964885129451683  1.0000
  I   I4        1.0  0.1225098285552838  0.6462969753565821  0.5351148703624784  1.0000
  I   I5        1.0  0.312339852850925  0.967047125638339  0.24970400699295386  1.0000
  I   I6        1.0  0.6876601474261342  0.46704712540992804  0.2502959929026917  1.0000
  I   I7        1.0  0.6876601470450102  0.0329528748184828  0.7502959928633585  1.0000
  I   I8        1.0  0.312339852469801  0.5329528750468937  0.7497040069536205  1.0000
