data_image0
_chemical_formula_structural       H32C72N8F16I8
_chemical_formula_sum              "H32 C72 N8 F16 I8"
_cell_length_a       14.816202979381384
_cell_length_b       5.987797509039034
_cell_length_c       20.095083472152957
_cell_angle_alpha    90.0
_cell_angle_beta     104.75092169028434
_cell_angle_gamma    90.0

_space_group_name_H-M_alt    "P 1"
_space_group_IT_number       1

loop_
  _space_group_symop_operation_xyz
  'x, y, z'

loop_
  _atom_site_type_symbol
  _atom_site_label
  _atom_site_symmetry_multiplicity
  _atom_site_fract_x
  _atom_site_fract_y
  _atom_site_fract_z
  _atom_site_occupancy
  H   H1        1.0  0.09903762047417469  0.0622881918496701  0.22815562123397085  1.0000
  H   H2        1.0  0.9009623792135419  0.5622881927649455  0.27184437851687726  1.0000
  H   H3        1.0  0.9009623791582144  0.9377118083108175  0.7718443783807086  1.0000
  H   H4        1.0  0.09903762059642911  0.4377118073955421  0.7281556216123964  1.0000
  H   H5        1.0  0.1533213655114992  0.32502502582328274  0.3260956037601509  1.0000
  H   H6        1.0  0.8466786343537996  0.825025025068495  0.1739043965052914  1.0000
  H   H7        1.0  0.846678634298472  0.6749749743372047  0.6739043963691227  1.0000
  H   H8        1.0  0.15332136545617156  0.17497497509199259  0.8260956036239824  1.0000
  H   H9        1.0  0.30412850179208645  0.2425890517852732  0.413925797572581  1.0000
  H   H10       1.0  0.6958714980732124  0.7425890510304854  0.08607420269286137  1.0000
  H   H11       1.0  0.6958714980178846  0.7574109483752143  0.5860742025566926  1.0000
  H   H12       1.0  0.3041285017367587  0.2574109491300021  0.9139257974364122  1.0000
  H   H13       1.0  0.44246570146523423  0.004875497201755774  0.45180574181189137  1.0000
  H   H14       1.0  0.5575342990750344  0.5048754981170311  0.04819425845364669  1.0000
  H   H15       1.0  0.5575342990197066  0.9951245029587318  0.548194258317478  1.0000
  H   H16       1.0  0.44246570140990643  0.4951245020434564  0.9518057416757225  1.0000
  H   H17       1.0  0.5339842870203197  0.6678274797976193  0.43577894883072615  1.0000
  H   H18       1.0  0.4660157135199488  0.16782747888234395  0.06422105143481192  1.0000
  H   H19       1.0  0.4660157134646211  0.33217252036286826  0.5642210512986433  1.0000
  H   H20       1.0  0.533984286964992  0.8321725212781436  0.9357789486945574  1.0000
  H   H21       1.0  0.5001452938955658  0.09918047146776497  0.28111778670226534  1.0000
  H   H22       1.0  0.4998547066447028  0.5991804707129771  0.21888221356327267  1.0000
  H   H23       1.0  0.499854706589375  0.9008195286927225  0.7188822134271039  1.0000
  H   H24       1.0  0.5001452938402381  0.4008195294475103  0.7811177865660967  1.0000
  H   H25       1.0  0.3541867201048656  0.16723809355415398  0.1876857064247293  1.0000
  H   H26       1.0  0.6458132797604332  0.6672380927993662  0.312314293840713  1.0000
  H   H27       1.0  0.6458132797051055  0.8327619066063334  0.8123142937045444  1.0000
  H   H28       1.0  0.3541867200495379  0.3327619073611214  0.6876857062885605  1.0000
  H   H29       1.0  0.255630664834487  0.4992134212099847  0.19765998182779831  1.0000
  H   H30       1.0  0.7443693355281994  0.99921342212526  0.3023400179231454  1.0000
  H   H31       1.0  0.7443693356504539  0.5007865789505028  0.802340018301571  1.0000
  H   H32       1.0  0.2556306647791593  0.000786578035227493  0.6976599816916297  1.0000
  C   C1        1.0  0.9475901170354152  0.505652917525916  0.08252774809956966  1.0000
  C   C2        1.0  0.05240988282988355  0.005652918280703896  0.4174722521658727  1.0000
  C   C3        1.0  0.05240988277455583  0.4943470826345714  0.917472252029704  1.0000
  C   C4        1.0  0.9475901169800875  0.9943470818797836  0.582527747963401  1.0000
  C   C5        1.0  0.9033547341993399  0.6334198099175026  0.025365404357206647  1.0000
  C   C6        1.0  0.09664526548837676  0.13341981067229042  0.4746345953936415  1.0000
  C   C7        1.0  0.09664526543304902  0.3665801902429849  0.9746345952574728  1.0000
  C   C8        1.0  0.9033547343215943  0.8665801894881972  0.5253654047356322  1.0000
  C   C9        1.0  0.8201208309309912  0.5626409451746271  0.980613047079702  1.0000
  C   C10       1.0  0.17987916882365204  0.06264094592941502  0.5193869529134029  1.0000
  C   C11       1.0  0.17987916887897978  0.4373590549858603  0.019386953049571595  1.0000
  C   C12       1.0  0.820120830986319  0.9373590542310726  0.4806130472158708  1.0000
  C   C13       1.0  0.7789219424271459  0.3602428316494927  0.9906329479254795  1.0000
  C   C14       1.0  0.2210780580024673  0.8602428325647681  0.5093670520677211  1.0000
  C   C15       1.0  0.22107805720524312  0.6397571685109948  0.009367051689199931  1.0000
  C   C16       1.0  0.7789219424824736  0.13975716759571952  0.4906329480616482  1.0000
  C   C17       1.0  0.8241038528234522  0.232191829784025  0.047114864814217255  1.0000
  C   C18       1.0  0.17589614704184645  0.7321918306993003  0.45288513545122505  1.0000
  C   C19       1.0  0.17589614698651881  0.7678081703764625  0.9528851353150565  1.0000
  C   C20       1.0  0.8241038527681246  0.2678081694611872  0.5471148646780486  1.0000
  C   C21       1.0  0.906682293744603  0.30256818258551266  0.0922991173358462  1.0000
  C   C22       1.0  0.09331770594311382  0.8025681835007881  0.4077008824150019  1.0000
  C   C23       1.0  0.09331770588778612  0.6974318159049118  0.9077008822788333  1.0000
  C   C24       1.0  0.9066822938668572  0.19743181665969955  0.5922991177142717  1.0000
  C   C25       1.0  0.16480095864504812  0.031154530479428066  0.26642639991950673  1.0000
  C   C26       1.0  0.8351990410426685  0.5311545297246403  0.23357359983134138  1.0000
  C   C27       1.0  0.8351990411649229  0.9688454696810594  0.7335736002097669  1.0000
  C   C28       1.0  0.16480095858972038  0.4688454704358473  0.7664263997833379  1.0000
  C   C29       1.0  0.19522540267249028  0.17915703201061722  0.32184362284713625  1.0000
  C   C30       1.0  0.8047745976901961  0.6791570312558295  0.17815637690380756  1.0000
  C   C31       1.0  0.8047745978124506  0.8208429681498703  0.6781563772822331  1.0000
  C   C32       1.0  0.1952254026171626  0.320842967234595  0.8218436227109676  1.0000
  C   C33       1.0  0.27792132831400995  0.13348962432236275  0.36983970367867386  1.0000
  C   C34       1.0  0.7220786715512888  0.633489623567575  0.13016029658676845  1.0000
  C   C35       1.0  0.7220786714959612  0.8665103758381247  0.6301602964505998  1.0000
  C   C36       1.0  0.2779213282586822  0.3665103765929126  0.8698397035425052  1.0000
  C   C37       1.0  0.3299561812650968  0.943418283846842  0.361326234809654  1.0000
  C   C38       1.0  0.67004381842262  0.4434182846016298  0.13867376494119413  1.0000
  C   C39       1.0  0.6700438183672921  0.056581716313645544  0.6386737648050255  1.0000
  C   C40       1.0  0.3299561813873511  0.5565817155588577  0.8613262351880794  1.0000
  C   C41       1.0  0.4170409754764933  0.8914102692922586  0.4087015926186996  1.0000
  C   C42       1.0  0.5829590243888054  0.3914102700470464  0.09129840764674274  1.0000
  C   C43       1.0  0.5829590243334778  0.1085897308682289  0.591298407510574  1.0000
  C   C44       1.0  0.41704097542116564  0.6085897301134411  0.9087015924825309  1.0000
  C   C45       1.0  0.46734245592559215  0.7080045248023707  0.400072364980068  1.0000
  C   C46       1.0  0.5326575439397065  0.20800452555715856  0.09992763528537428  1.0000
  C   C47       1.0  0.5326575438843789  0.29199547535811676  0.5999276351492056  1.0000
  C   C48       1.0  0.46734245587026446  0.791995474603329  0.9000723648438994  1.0000
  C   C49       1.0  0.43370223836171634  0.562455633296875  0.34267429151422696  1.0000
  C   C50       1.0  0.5662977613260003  0.062455634051662816  0.1573257082366211  1.0000
  C   C51       1.0  0.5662977612706727  0.43754436686361253  0.6573257081004525  1.0000
  C   C52       1.0  0.43370223848397077  0.9375443661088246  0.8426742918926525  1.0000
  C   C53       1.0  0.45637384915885437  0.2445796167604594  0.28284146628018436  1.0000
  C   C54       1.0  0.5436261505288623  0.7445796160056716  0.21715853347066374  1.0000
  C   C55       1.0  0.5436261506511167  0.755420383400028  0.7171585338490893  1.0000
  C   C56       1.0  0.4563738491035267  0.25542038415481594  0.7828414661440157  1.0000
  C   C57       1.0  0.3742395488500729  0.28191041989175525  0.2309908143902444  1.0000
  C   C58       1.0  0.6257604510152259  0.7819104191369675  0.2690091858751979  1.0000
  C   C59       1.0  0.6257604509598982  0.7180895802687324  0.7690091857390292  1.0000
  C   C60       1.0  0.3742395487947452  0.2180895810235201  0.7309908142540757  1.0000
  C   C61       1.0  0.3199131096147677  0.4653464476368344  0.2365339867301467  1.0000
  C   C62       1.0  0.680086890072949  0.9653464468820466  0.2634660130207014  1.0000
  C   C63       1.0  0.6800868900176213  0.5346535525236531  0.7634660128845328  1.0000
  C   C64       1.0  0.31991310973702214  0.03465355327844093  0.7365339871085722  1.0000
  C   C65       1.0  0.3479323848741951  0.610010461189794  0.2932812591865257  1.0000
  C   C66       1.0  0.6520676154884913  0.1100104602745186  0.20671874056441808  1.0000
  C   C67       1.0  0.6520676156107459  0.38998953897069355  0.7067187409428437  1.0000
  C   C68       1.0  0.3479323848188674  0.8899895398859689  0.7932812590503571  1.0000
  C   C69       1.0  0.29414747743525804  0.8034733660811638  0.30316356656549986  1.0000
  C   C70       1.0  0.7058525222524586  0.30347336683595166  0.19683643318534827  1.0000
  C   C71       1.0  0.7058525221971309  0.19652663240926055  0.6968364330491795  1.0000
  C   C72       1.0  0.2941474775575124  0.6965266333245359  0.8031635669439254  1.0000
  N   N1        1.0  0.48582763102490817  0.37999414084481326  0.33644638244094743  1.0000
  N   N2        1.0  0.5141723695153603  0.8799941417600885  0.16355361782459055  1.0000
  N   N3        1.0  0.5141723694600326  0.6200058593156743  0.6635536176884219  1.0000
  N   N4        1.0  0.4858276309695805  0.12000585840039898  0.8364463823047787  1.0000
  N   N5        1.0  0.2115902337508718  0.848557059975703  0.25720656245720874  1.0000
  N   N6        1.0  0.7884097659368448  0.3485570607304908  0.24279343729363934  1.0000
  N   N7        1.0  0.7884097660590992  0.15144294018478452  0.742793437672065  1.0000
  N   N8        1.0  0.2115902336955441  0.6514429394299966  0.75720656232104  1.0000
  F   F1        1.0  0.9402942774162844  0.8308921723704814  0.012759369762873368  1.0000
  F   F2        1.0  0.05970572312398428  0.3308921731252693  0.48724063050266464  1.0000
  F   F3        1.0  0.0597057230686566  0.16910782779000605  0.987240630366496  1.0000
  F   F4        1.0  0.9402942773609565  0.6691078270352182  0.5127593696267047  1.0000
  F   F5        1.0  0.7791276774107984  0.6965875371876759  0.9269145919515763  1.0000
  F   F6        1.0  0.22087232234384507  0.19658753627240044  0.5730854080415285  1.0000
  F   F7        1.0  0.22087232222159064  0.3034124629728117  0.07308540766310297  1.0000
  F   F8        1.0  0.779127677466126  0.8034124638880871  0.42691459208774507  1.0000
  F   F9        1.0  0.7863760582671091  0.03479213511905049  0.059912594818981015  1.0000
  F   F10       1.0  0.21362394209557736  0.5347921360343258  0.44008740493196274  1.0000
  F   F11       1.0  0.21362394221783176  0.9652078650414371  0.9400874053103883  1.0000
  F   F12       1.0  0.7863760582117814  0.4652078641261617  0.5599125946828123  1.0000
  F   F13       1.0  0.9455197270230062  0.17188574737978682  0.14736362470410772  1.0000
  F   F14       1.0  0.054480273517262263  0.671885746624999  0.3526363755614303  1.0000
  F   F15       1.0  0.05448027346193458  0.8281142527807007  0.8526363754252616  1.0000
  F   F16       1.0  0.9455197269676786  0.3281142535354885  0.6473636245679389  1.0000
  I   I1        1.0  0.06644844442430474  0.624608090763615  0.1545829667355661  1.0000
  I   I2        1.0  0.9335515559383817  0.12460809151840277  0.3454170330153777  1.0000
  I   I3        1.0  0.9335515560606361  0.3753919077268094  0.8454170333938033  1.0000
  I   I4        1.0  0.06644844436897701  0.8753919086420847  0.6545829665993974  1.0000
  I   I5        1.0  0.6519826703949527  0.2481940375833628  0.9245209781257425  1.0000
  I   I6        1.0  0.3480173300346604  0.748194036828575  0.575479021867458  1.0000
  I   I7        1.0  0.3480173300899881  0.7518059625771247  0.07547902200362669  1.0000
  I   I8        1.0  0.6519826704502805  0.2518059633319125  0.4245209782619114  1.0000
