data_image0
_chemical_formula_structural       H32C72N8F16I8
_chemical_formula_sum              "H32 C72 N8 F16 I8"
_cell_length_a       9.989490016468329
_cell_length_b       12.751667451381055
_cell_length_c       14.006908353887422
_cell_angle_alpha    82.44180591038472
_cell_angle_beta     74.67935551565286
_cell_angle_gamma    85.83620174000708

_space_group_name_H-M_alt    "P 1"
_space_group_IT_number       1

loop_
  _space_group_symop_operation_xyz
  'x, y, z'

loop_
  _atom_site_type_symbol
  _atom_site_label
  _atom_site_symmetry_multiplicity
  _atom_site_fract_x
  _atom_site_fract_y
  _atom_site_fract_z
  _atom_site_occupancy
  H   H1        1.0  0.41818383662206726  0.413222337968149  0.8853914224415647  1.0000
  H   H2        1.0  0.5818161629860553  0.5867776624544868  0.11460857722400004  1.0000
  H   H3        1.0  0.39367002932131584  0.5207857164172298  0.7272987844885525  1.0000
  H   H4        1.0  0.6063299710976218  0.4792142831289972  0.272701215921264  1.0000
  H   H5        1.0  0.21298160161308388  0.6660280433023116  0.7366821473456059  1.0000
  H   H6        1.0  0.7870183980696679  0.33397195633396237  0.26331785232058025  1.0000
  H   H7        1.0  0.0836132324087527  0.5295464147695474  0.1424499220196794  1.0000
  H   H8        1.0  0.9163867669340388  0.47045358556127925  0.8575500783912242  1.0000
  H   H9        1.0  0.8905982390326365  0.6690750205612847  0.16318476528309783  1.0000
  H   H10       1.0  0.10940176038478372  0.3309249789831802  0.8368152351284273  1.0000
  H   H11       1.0  0.0661272314928647  0.7862002467652286  0.7543931652752721  1.0000
  H   H12       1.0  0.9338727681152581  0.21379975365740705  0.24560683439029252  1.0000
  H   H13       1.0  0.8765077099042311  0.9241412664109588  0.7884888624323988  1.0000
  H   H14       1.0  0.12349228951318937  0.07585873313350608  0.21151113797912632  1.0000
  H   H15       1.0  0.7299786610354191  0.9302964335266596  0.9631982481642533  1.0000
  H   H16       1.0  0.27002133857270383  0.06970356689597607  0.0368017515013114  1.0000
  H   H17       1.0  0.04980002024821664  0.8994682048075385  0.14982553048231032  1.0000
  H   H18       1.0  0.9501999803614233  0.10053179561685932  0.8501744691815458  1.0000
  H   H19       1.0  0.8712058998629749  0.9228188374158394  0.30928857365104684  1.0000
  H   H20       1.0  0.12879410074666517  0.07718116300855833  0.6907114260128093  1.0000
  H   H21       1.0  0.8831320364360349  0.8044710367116301  0.4625104369285921  1.0000
  H   H22       1.0  0.11686796417360501  0.19552896371276765  0.537489562735264  1.0000
  H   H23       1.0  0.3345302525022509  0.616373374523141  0.20772119258528846  1.0000
  H   H24       1.0  0.6654697471805008  0.3836266251131327  0.7922788070808977  1.0000
  H   H25       1.0  0.3579063157635711  0.4877606047609481  0.3542484282592779  1.0000
  H   H26       1.0  0.6420936849206976  0.5122393948770879  0.6457515714051999  1.0000
  H   H27       1.0  0.9161978446191121  0.7107088023075178  0.5828780788520906  1.0000
  H   H28       1.0  0.08380215479830819  0.28929119723694713  0.41712192155943445  1.0000
  H   H29       1.0  0.9515781403858118  0.5807569248322416  0.721988554792469  1.0000
  H   H30       1.0  0.04842186003312585  0.41924307471398553  0.2780114456173475  1.0000
  H   H31       1.0  0.14590394829951603  0.44175471069593075  0.6871827917726576  1.0000
  H   H32       1.0  0.854096052310124  0.5582452897284671  0.31281720789119843  1.0000
  C   C1        1.0  0.44782387105507226  0.8358033242429647  0.31884453724606554  1.0000
  C   C2        1.0  0.5521761283623481  0.16419667530150014  0.6811554631654595  1.0000
  C   C3        1.0  0.4337962911277635  0.7773530092210157  0.41303371889746066  1.0000
  C   C4        1.0  0.5662037094818765  0.22264699120338208  0.5869662807663955  1.0000
  C   C5        1.0  0.32298737051794424  0.8026690961935602  0.4914927579071096  1.0000
  C   C6        1.0  0.677012628899476  0.19733090335090464  0.5085072425044155  1.0000
  C   C7        1.0  0.22821023185255038  0.8857929150821647  0.48036487610808604  1.0000
  C   C8        1.0  0.7717897675648698  0.11420708446230023  0.519635124303439  1.0000
  C   C9        1.0  0.24299095305221122  0.9445716058499759  0.387521962184995  1.0000
  C   C10       1.0  0.7570090476320576  0.055428393788060054  0.6124780374794827  1.0000
  C   C11       1.0  0.35108300877025506  0.9179899461797438  0.3076174076365502  1.0000
  C   C12       1.0  0.6489169919140139  0.08201005345829213  0.6923825920279275  1.0000
  C   C13       1.0  0.46727921311452825  0.23451387972855206  0.18974494534740038  1.0000
  C   C14       1.0  0.5327207863028921  0.7654861198159129  0.8102550550641247  1.0000
  C   C15       1.0  0.5881644233074931  0.17870793530695228  0.1426539952900558  1.0000
  C   C16       1.0  0.41183557703681545  0.8212920650256365  0.8573460051191393  1.0000
  C   C17       1.0  0.6533781446649518  0.10539610531908017  0.20063391205280756  1.0000
  C   C18       1.0  0.3466218557539857  0.8946038942271468  0.799366088357009  1.0000
  C   C19       1.0  0.5980435752390567  0.08303201293248169  0.3030463458686312  1.0000
  C   C20       1.0  0.40195642444369484  0.9169679867037922  0.696953653797555  1.0000
  C   C21       1.0  0.4754484326695984  0.13528875629441028  0.3490155157837013  1.0000
  C   C22       1.0  0.5245515667478219  0.8647112432500548  0.6509844846278239  1.0000
  C   C23       1.0  0.41337418034961215  0.2114568888961578  0.2920617117024058  1.0000
  C   C24       1.0  0.5866258202600277  0.7885431115282401  0.7079382879614503  1.0000
  C   C25       1.0  0.3381469693541474  0.4765960427195525  0.8871989393933709  1.0000
  C   C26       1.0  0.6618530299886439  0.5234039576112742  0.11280106101753266  1.0000
  C   C27       1.0  0.32485685170642853  0.5372165843366812  0.7987159029412544  1.0000
  C   C28       1.0  0.6751431489032114  0.4627834160877165  0.20128409672260172  1.0000
  C   C29       1.0  0.22324018650790273  0.6173471101011045  0.8043504008160812  1.0000
  C   C30       1.0  0.7767598131002201  0.3826528903215312  0.19564959884948344  1.0000
  C   C31       1.0  0.13338238302671146  0.6347283491135578  0.8974074931267683  1.0000
  C   C32       1.0  0.8666176173922259  0.36527165043266907  0.1025925072830484  1.0000
  C   C33       1.0  0.153291283905461  0.5680185728540965  0.9830613315303574  1.0000
  C   C34       1.0  0.846708716778808  0.43198142678393936  0.016938668134120243  1.0000
  C   C35       1.0  0.06384733623099258  0.5816359298643116  0.07912864572437525  1.0000
  C   C36       1.0  0.936152664187945  0.4183640696819155  0.9208713546854413  1.0000
  C   C37       1.0  0.9592610601721098  0.6575804456722931  0.09038232657816554  1.0000
  C   C38       1.0  0.04073893951064198  0.3424195539639806  0.9096176730880206  1.0000
  C   C39       1.0  0.9371793317718786  0.7271396388059411  0.006620860145557707  1.0000
  C   C40       1.0  0.06282066857243004  0.27286036152664767  0.9933791402636372  1.0000
  C   C41       1.0  0.02477175819687839  0.7169090433319395  0.9094682253308068  1.0000
  C   C42       1.0  0.9752282424873905  0.2830909563060965  0.09053177433367078  1.0000
  C   C43       1.0  0.0014702430991177734  0.7897365094546142  0.8300475725731598  1.0000
  C   C44       1.0  0.9985297573198197  0.21026349009161285  0.1699524278366567  1.0000
  C   C45       1.0  0.8967662249842213  0.8671887367072851  0.8484730892383386  1.0000
  C   C46       1.0  0.10323377570004762  0.13281126293075096  0.15152691042613892  1.0000
  C   C47       1.0  0.8144206644827426  0.8705310181383676  0.946463314370632  1.0000
  C   C48       1.0  0.1855793349346778  0.12946898140609744  0.053536686040892977  1.0000
  C   C49       1.0  0.05290272333685003  0.8478480176123381  0.21805821652194346  1.0000
  C   C50       1.0  0.9470972760805703  0.1521519819321268  0.7819417838895817  1.0000
  C   C51       1.0  0.9525243276478913  0.8610850575568129  0.30756621259742717  1.0000
  C   C52       1.0  0.047475673036377466  0.1389149420812231  0.6924337870670505  1.0000
  C   C53       1.0  0.9599479307998584  0.794636484457141  0.3924493791388908  1.0000
  C   C54       1.0  0.04005206954445023  0.2053635158754478  0.6075506212703042  1.0000
  C   C55       1.0  0.06618585513354136  0.7147377748078723  0.3870313908243031  1.0000
  C   C56       1.0  0.9338141452107671  0.28526222552471664  0.612968609584892  1.0000
  C   C57       1.0  0.1614925809353689  0.7056722695370599  0.2923313084924358  1.0000
  C   C58       1.0  0.8385074184820513  0.2943277300074051  0.7076686919190893  1.0000
  C   C59       1.0  0.2666365621245921  0.622329700581016  0.28194455044305383  1.0000
  C   C60       1.0  0.7333634374835306  0.37767029984161965  0.7180554492225109  1.0000
  C   C61       1.0  0.27984745981349046  0.5524898720800622  0.3618936861362342  1.0000
  C   C62       1.0  0.720152540530818  0.44751012825252673  0.6381063142729608  1.0000
  C   C63       1.0  0.190405851515005  0.5618716249404263  0.4590663462985451  1.0000
  C   C64       1.0  0.8095941480931178  0.43812837548220945  0.5409336533670196  1.0000
  C   C65       1.0  0.08304291127328974  0.6428838108162845  0.47210207496007567  1.0000
  C   C66       1.0  0.9169570880695017  0.35711618951454216  0.5278979254508279  1.0000
  C   C67       1.0  0.9979494702841025  0.6493654930501364  0.5689471111779937  1.0000
  C   C68       1.0  0.0020505293240200835  0.35063450737249946  0.431052888487571  1.0000
  C   C69       1.0  0.0181348759879827  0.5771892195466598  0.6469388568439993  1.0000
  C   C70       1.0  0.9818651246216573  0.42281078087773816  0.35306114281985673  1.0000
  C   C71       1.0  0.12589116529799121  0.49971246414061876  0.6273081663754626  1.0000
  C   C72       1.0  0.8741088351209464  0.5002875354056082  0.37269183403435385  1.0000
  N   N1        1.0  0.2561756657065733  0.49135782286833735  0.9763816944344622  1.0000
  N   N2        1.0  0.7438243339015495  0.5086421775542983  0.023618305231102556  1.0000
  N   N3        1.0  0.8332009902414736  0.8029344282607442  0.02293471407177928  1.0000
  N   N4        1.0  0.16679900936664904  0.19706557216189158  0.9770652855937852  1.0000
  N   N5        1.0  0.15446906984933523  0.7736784861548196  0.21019245773079523  1.0000
  N   N6        1.0  0.8455309294934561  0.22632151417600735  0.7898075426801083  1.0000
  N   N7        1.0  0.20993597783081158  0.4924865595809075  0.5372351233924286  1.0000
  N   N8        1.0  0.7900640215119799  0.5075134407499192  0.46276487701847485  1.0000
  F   F1        1.0  0.3039507999823521  0.7474146801773034  0.5838952608251512  1.0000
  F   F2        1.0  0.6960492003619564  0.25258532015528556  0.4161047395840438  1.0000
  F   F3        1.0  0.12241236702807445  0.9088130173121709  0.5582157334462031  1.0000
  F   F4        1.0  0.8775876333162341  0.09118698302041799  0.44178426696299194  1.0000
  F   F5        1.0  0.15347367634596656  0.027087955584008012  0.37594042657406035  1.0000
  F   F6        1.0  0.8465263242636732  0.9729120448403897  0.6240595730897959  1.0000
  F   F7        1.0  0.35924008780384303  0.9765389768027077  0.21807378755925044  1.0000
  F   F8        1.0  0.6407599118789086  0.023461022833566283  0.7819262121069358  1.0000
  F   F9        1.0  0.7738263069488016  0.05330820683115382  0.15923177362756735  1.0000
  F   F10       1.0  0.2261736937354672  0.9466917928068822  0.8407682260369101  1.0000
  F   F11       1.0  0.6610108298439055  0.011007196326906674  0.3583831496815818  1.0000
  F   F12       1.0  0.33898916983884625  0.9889928033093671  0.6416168499846043  1.0000
  F   F13       1.0  0.4182269490217736  0.11184666853160072  0.4476132552685205  1.0000
  F   F14       1.0  0.5817730506609781  0.8881533311046732  0.5523867443976657  1.0000
  F   F15       1.0  0.2962721924576434  0.2630120896986823  0.3406985076777956  1.0000
  F   F16       1.0  0.7037278072251083  0.7369879099375917  0.6593014919883906  1.0000
  I   I1        1.0  0.6155660200632355  0.811515760435408  0.19327221165696779  1.0000
  I   I2        1.0  0.3844339795448873  0.18848423998722777  0.8067277880085969  1.0000
  I   I3        1.0  0.5780567342314504  0.6559700886013161  0.44454533584688166  1.0000
  I   I4        1.0  0.4219432651113411  0.34402991172951053  0.5554546645640219  1.0000
  I   I5        1.0  0.36249056179993483  0.3527919838489124  0.11216056271499804  1.0000
  I   I6        1.0  0.6375094375428566  0.6472080164819144  0.8878394376959055  1.0000
  I   I7        1.0  0.6784818479035528  0.2003673799862935  0.9873115048561074  1.0000
  I   I8        1.0  0.32151815251538474  0.7996326195599335  0.012688495553709184  1.0000
