data_image0
_chemical_formula_structural       H68C72N16O24S4Cl4
_chemical_formula_sum              "H68 C72 N16 O24 S4 Cl4"
_cell_length_a       4.779497913248902
_cell_length_b       20.628057446600014
_cell_length_c       19.094863435572847
_cell_angle_alpha    90.0
_cell_angle_beta     93.37921423696763
_cell_angle_gamma    90.0

_space_group_name_H-M_alt    "P 1"
_space_group_IT_number       1

loop_
  _space_group_symop_operation_xyz
  'x, y, z'

loop_
  _atom_site_type_symbol
  _atom_site_label
  _atom_site_symmetry_multiplicity
  _atom_site_fract_x
  _atom_site_fract_y
  _atom_site_fract_z
  _atom_site_occupancy
  H   H1        1.0  0.948404706366977  0.33778639350980033  0.767573395970877  1.0000
  H   H2        1.0  0.5515952941798467  0.8377863933498237  0.7324266041143275  1.0000
  H   H3        1.0  0.05159529403810451  0.662213606655023  0.23242660426079698  1.0000
  H   H4        1.0  0.4484047061036376  0.162213606330223  0.2675733955927336  1.0000
  H   H5        1.0  0.6968178393374558  0.22010616616487838  0.7863137874070798  1.0000
  H   H6        1.0  0.8031821612093678  0.7201061660049017  0.7136862126781246  1.0000
  H   H7        1.0  0.3031821609460285  0.7798938339999449  0.2136862122999812  1.0000
  H   H8        1.0  0.19681783919571363  0.2798938341599216  0.28631378755354936  1.0000
  H   H9        1.0  0.2731710092530196  0.21393620516251666  0.6833752563741246  1.0000
  H   H10       1.0  0.22682899100171472  0.7139362050025401  0.8166247436089121  1.0000
  H   H11       1.0  0.7268289910304646  0.7860637945175301  0.3166247433329365  1.0000
  H   H12       1.0  0.7731710094033668  0.2860637946775067  0.18337525662276194  1.0000
  H   H13       1.0  0.8872256169641031  0.42434325591054434  0.6537384374200294  1.0000
  H   H14       1.0  0.6127743835827205  0.9243432562353443  0.8462615626651752  1.0000
  H   H15       1.0  0.11277438331938118  0.5756567437695024  0.3462615622870317  1.0000
  H   H16       1.0  0.38722561682236095  0.07565674392947902  0.15373843756649883  1.0000
  H   H17       1.0  0.6440370219661604  0.3989844400669217  0.5849935485806201  1.0000
  H   H18       1.0  0.8559629785806633  0.898984439906945  0.9150064515045844  1.0000
  H   H19       1.0  0.3559629783173239  0.6010155600979017  0.4150064511264408  1.0000
  H   H20       1.0  0.14403702182441827  0.10101556025787835  0.08499354872708968  1.0000
  H   H21       1.0  0.3460100774160422  0.45062882067608995  0.7020579129249641  1.0000
  H   H22       1.0  0.15398992283869217  0.9506288205161133  0.7979420870580725  1.0000
  H   H23       1.0  0.6539899228674421  0.5493711794887334  0.2979420867820969  1.0000
  H   H24       1.0  0.8460100775663894  0.04937117916393341  0.20205791317360153  1.0000
  H   H25       1.0  0.16680416184396152  0.732656120874388  0.4955574899520657  1.0000
  H   H26       1.0  0.3331958382977806  0.23265612054958804  0.004442509901464787  1.0000
  H   H27       1.0  0.8331958384395227  0.26734387929043535  0.5044425097549953  1.0000
  H   H28       1.0  0.6668041619857037  0.7673438791304588  0.9955574898055962  1.0000
  H   H29       1.0  0.461172201693153  0.7172124436970924  0.4488443034600757  1.0000
  H   H30       1.0  0.038827798448589176  0.217212443857069  0.05115569639345482  1.0000
  H   H31       1.0  0.5388277966195447  0.28278755598295435  0.5511556967711106  1.0000
  H   H32       1.0  0.9611722018348952  0.7827875563077543  0.9488443033136063  1.0000
  H   H33       1.0  0.25007951691556274  0.6720896025178122  0.6689298372219394  1.0000
  H   H34       1.0  0.24992048333917163  0.17208960219301223  0.8310701627610971  1.0000
  H   H35       1.0  0.7499204834895189  0.32791039764701113  0.3310701630097345  1.0000
  H   H36       1.0  0.75007951706591  0.8279103974870345  0.1689298374705769  1.0000
  H   H37       1.0  0.8873866021071833  0.594540795309906  0.7942962539899128  1.0000
  H   H38       1.0  0.6126133963472563  0.09454079546988257  0.705703746094804  1.0000
  H   H39       1.0  0.11261339620551422  0.4054592043701408  0.2057037462412736  1.0000
  H   H40       1.0  0.3873866019654413  0.9054592046949408  0.2942962541363823  1.0000
  H   H41       1.0  0.7845588883384568  0.4974936247179916  0.5584119967132193  1.0000
  H   H42       1.0  0.7154411120867697  0.9974936250427917  0.9415880028473724  1.0000
  H   H43       1.0  0.21544111194502752  0.5025063749620551  0.4415880029938417  1.0000
  H   H44       1.0  0.2845588881967146  0.002506375122031747  0.05841199685968878  1.0000
  H   H45       1.0  0.3719932771665528  0.34201175017392804  0.8885022178364075  1.0000
  H   H46       1.0  0.12800672099579766  0.8420117500139515  0.6114977821461415  1.0000
  H   H47       1.0  0.6280067211461449  0.6579882499908953  0.11149778239477891  1.0000
  H   H48       1.0  0.8719932771953027  0.15798825015087195  0.38850221756043196  1.0000
  H   H49       1.0  0.6614563153562514  0.39470089372579176  0.8873413638679831  1.0000
  H   H50       1.0  0.8385436851905723  0.8947008935658152  0.6126586362172212  1.0000
  H   H51       1.0  0.3385436850488302  0.6052991064390316  0.11265863636369068  1.0000
  H   H52       1.0  0.1614563152145092  0.10529910659900821  0.3873413640144528  1.0000
  H   H53       1.0  0.13436277368575386  0.542441411604867  0.9773551564004331  1.0000
  H   H54       1.0  0.3656372265689805  0.042441411764843624  0.5226448435826034  1.0000
  H   H55       1.0  0.8656372265977306  0.4575585880751798  0.02264484330662779  1.0000
  H   H56       1.0  0.6343627738361011  0.9575585883999796  0.4773551566490707  1.0000
  H   H57       1.0  0.33046819391947296  0.6543725096240148  0.9696400563551456  1.0000
  H   H58       1.0  0.16953180633526144  0.15437250978399153  0.530359943627891  1.0000
  H   H59       1.0  0.6695318064856085  0.34562749054080844  0.03035994387652831  1.0000
  H   H60       1.0  0.8304681939482228  0.8456274903808317  0.46964005607917014  1.0000
  H   H61       1.0  0.6940780729827324  0.6757943444789898  0.8819001767496806  1.0000
  H   H62       1.0  0.8059219275640913  0.1757943446389664  0.6180998233355238  1.0000
  H   H63       1.0  0.30592192730075196  0.3242056556858336  0.1180998229573804  1.0000
  H   H64       1.0  0.19407807284099018  0.8242056555258569  0.38190017689615013  1.0000
  H   H65       1.0  0.6865880482610207  0.48548027151488404  0.8161967617502655  1.0000
  H   H66       1.0  0.8134119522858029  0.9854802713549073  0.6838032383349391  1.0000
  H   H67       1.0  0.31341195214406076  0.5145197286499393  0.18380323848140848  1.0000
  H   H68       1.0  0.18658804811927868  0.014519728325139354  0.316196761896735  1.0000
  C   C1        1.0  0.6849118985702394  0.5979543712213695  0.5599573695076367  1.0000
  C   C2        1.0  0.8150881019765842  0.0979543713813461  0.9400426305775677  1.0000
  C   C3        1.0  0.3150881017132448  0.40204562894345386  0.44004263019942425  1.0000
  C   C4        1.0  0.18491189842849728  0.9020456287834773  0.05995736965410624  1.0000
  C   C5        1.0  0.6648884288044741  0.5348662363657775  0.5834275753020607  1.0000
  C   C6        1.0  0.8351115717423496  0.034866236040977515  0.9165724247831439  1.0000
  C   C7        1.0  0.3351115714790101  0.46513376379904586  0.4165724244050003  1.0000
  C   C8        1.0  0.164888428662732  0.9651337636390693  0.0834275754485302  1.0000
  C   C9        1.0  0.48988509967889565  0.5189913450509884  0.6383264563327846  1.0000
  C   C10       1.0  0.01011490057583875  0.018991345210965092  0.8616735436502518  1.0000
  C   C11       1.0  0.5101149007261859  0.4810086546290583  0.36167354389888934  1.0000
  C   C12       1.0  0.9898850997076454  0.9810086549538584  0.13832645605680907  1.0000
  C   C13       1.0  0.6709436927759697  0.40748109567560997  0.6419900433773055  1.0000
  C   C14       1.0  0.829056307770854  0.90748109600041  0.8580099567078991  1.0000
  C   C15       1.0  0.32905630762911187  0.5925189040044367  0.3580099568543686  1.0000
  C   C16       1.0  0.17094369263422754  0.09251890416441336  0.1419900435237749  1.0000
  C   C17       1.0  0.6335413996629299  0.3458110264849855  0.6797984880749547  1.0000
  C   C18       1.0  0.8664585987915099  0.8458110263250088  0.8202015120097622  1.0000
  C   C19       1.0  0.3664585985281705  0.6541889736798379  0.3202015116316187  1.0000
  C   C20       1.0  0.13354140161357167  0.15418897335503787  0.1797984882219118  1.0000
  C   C21       1.0  0.4287962481784694  0.25084189887462516  0.6960893398824338  1.0000
  C   C22       1.0  0.07120375207626503  0.7508418987146486  0.8039106601006029  1.0000
  C   C23       1.0  0.5712037522266121  0.7491581012901982  0.3039106603492402  1.0000
  C   C24       1.0  0.9287962482072193  0.24915810145017478  0.19608933960645825  1.0000
  C   C25       1.0  0.640596333298264  0.2561375633007491  0.7467290527605858  1.0000
  C   C26       1.0  0.8594036672485597  0.7561375631407725  0.7532709473246187  1.0000
  C   C27       1.0  0.3594036671068175  0.7438624368640743  0.25327094747108825  1.0000
  C   C28       1.0  0.14059633315652192  0.24386243653927428  0.2467290529070553  1.0000
  C   C29       1.0  0.7724084274968441  0.31751139713252713  0.7363976253125099  1.0000
  C   C30       1.0  0.7275915709575957  0.8175113969725504  0.763602374772207  1.0000
  C   C31       1.0  0.22759157290823753  0.6824886030322963  0.26360237491916416  1.0000
  C   C32       1.0  0.2724084273551019  0.1824886031922729  0.23639762545897933  1.0000
  C   C33       1.0  0.33250064099931737  0.5701268808488035  0.6682525489782342  1.0000
  C   C34       1.0  0.167499359255417  0.0701268805240035  0.8317474510048024  1.0000
  C   C35       1.0  0.6674993592841668  0.42987311931601985  0.33174745072882683  1.0000
  C   C36       1.0  0.8325006411496645  0.9298731191560432  0.1682525492268716  1.0000
  C   C37       1.0  0.3654015898316197  0.6334387818060727  0.6446646409112592  1.0000
  C   C38       1.0  0.13459841042311466  0.13343878196604936  0.8553353590717775  1.0000
  C   C39       1.0  0.6345984105734618  0.36656121835875066  0.3553353593204148  1.0000
  C   C40       1.0  0.8654015898603695  0.866561218198774  0.1446646406352836  1.0000
  C   C41       1.0  0.540614792716991  0.6491214475557417  0.5910189670071444  1.0000
  C   C42       1.0  0.9593852078298326  0.14912144771571842  0.9089810330780601  1.0000
  C   C43       1.0  0.4593852076880905  0.3508785526090816  0.4089810332245296  1.0000
  C   C44       1.0  0.04061479257524893  0.8508785524491049  0.09101896715361388  1.0000
  C   C45       1.0  0.13879583153304523  0.5564629330568384  0.7242562472670487  1.0000
  C   C46       1.0  0.36120416662930527  0.056462933216814996  0.7757437527155003  1.0000
  C   C47       1.0  0.8612041667796525  0.44353706662320835  0.2757437529641378  1.0000
  C   C48       1.0  0.6387958316833923  0.9435370669480083  0.22425624751568607  1.0000
  C   C49       1.0  0.2761188277614041  0.436991572926115  0.9004891882024392  1.0000
  C   C50       1.0  0.2238811704009463  0.9369915727661384  0.5995108117801097  1.0000
  C   C51       1.0  0.7238811705512935  0.5630084272387084  0.09951081202874715  1.0000
  C   C52       1.0  0.776118827790154  0.06300842691390836  0.40048918792646365  1.0000
  C   C53       1.0  0.39554874689597813  0.5041228824827619  0.898258148844033  1.0000
  C   C54       1.0  0.10445125335875624  0.004122882642738506  0.6017418511390035  1.0000
  C   C55       1.0  0.6044512533875062  0.4958771171972849  0.10174185086302795  1.0000
  C   C56       1.0  0.8955487470463253  0.9958771175220849  0.3982581490926705  1.0000
  C   C57       1.0  0.5990511228394652  0.5205083240530591  0.851625261525406  1.0000
  C   C58       1.0  0.9009488777073587  0.020508324213035774  0.6483747385597985  1.0000
  C   C59       1.0  0.4009488775656165  0.47949167611176424  0.14837473870626808  1.0000
  C   C60       1.0  0.09905112257612571  0.9794916759517877  0.35162526114726245  1.0000
  C   C61       1.0  0.6019036481026443  0.6278997900568117  0.8880549979925881  1.0000
  C   C62       1.0  0.8980963524441795  0.12789979021678832  0.6119450020926165  1.0000
  C   C63       1.0  0.39809635230243723  0.37210020962323503  0.11194500223908599  1.0000
  C   C64       1.0  0.10190364783930489  0.8721002099480349  0.38805499761444456  1.0000
  C   C65       1.0  0.4012374550174366  0.6157253189196182  0.936137121172556  1.0000
  C   C66       1.0  0.09876254523729776  0.11572531907959488  0.5638628788104805  1.0000
  C   C67       1.0  0.598762545387645  0.3842746807604285  0.06386287905911786  1.0000
  C   C68       1.0  0.9012374550461866  0.8842746806004519  0.4361371208965806  1.0000
  C   C69       1.0  0.2936424445100485  0.5530631412838346  0.9404548520221451  1.0000
  C   C70       1.0  0.20635755574468592  0.053063141443811225  0.5595451479608915  1.0000
  C   C71       1.0  0.7063575557734357  0.4469368588809888  0.05954514768491589  1.0000
  C   C72       1.0  0.7936424446603956  0.9469368587210121  0.44045485227078246  1.0000
  N   N1        1.0  0.4753363489714502  0.45738656557576673  0.6616336989036499  1.0000
  N   N2        1.0  0.024663651283284224  0.9573865659005667  0.8383663010793868  1.0000
  N   N3        1.0  0.5246636513120341  0.5426134341042801  0.3383663008034112  1.0000
  N   N4        1.0  0.9753363470294135  0.04261343426425667  0.1616336991517996  1.0000
  N   N5        1.0  0.37672444686782214  0.7403723312064585  0.4900601072050365  1.0000
  N   N6        1.0  0.12327555327391995  0.24037233136643518  0.009939892648494  1.0000
  N   N7        1.0  0.6232755513232782  0.25962766847358815  0.5099398925015369  1.0000
  N   N8        1.0  0.8767244470095643  0.7596276687983882  0.9900601070585672  1.0000
  N   N9        1.0  0.44863167856418973  0.38803699479319226  0.8856885434735681  1.0000
  N   N10       1.0  0.05136832169054459  0.8880369946332156  0.6143114565094685  1.0000
  N   N11       1.0  0.5513683197485079  0.6119630053716311  0.11431145675761838  1.0000
  N   N12       1.0  0.9486316785929398  0.11196300504683113  0.3856885431975925  1.0000
  N   N13       1.0  0.6952430229903197  0.5811436763269185  0.8462985992861383  1.0000
  N   N14       1.0  0.804756977556504  0.08114367648689515  0.6537014007990664  1.0000
  N   N15       1.0  0.3047569774147618  0.41885632383790483  0.15370140094553572  1.0000
  N   N16       1.0  0.19524302272698027  0.9188563236779281  0.3462985989079948  1.0000
  O   O1        1.0  0.4196107251831953  0.3051835693349603  0.6540300981592306  1.0000
  O   O2        1.0  0.0803892750715391  0.8051835691749836  0.8459699018238058  1.0000
  O   O3        1.0  0.5803892752218862  0.694816430829863  0.3459699020724433  1.0000
  O   O4        1.0  0.9196107252119453  0.19481643098983967  0.1540300978832551  1.0000
  O   O5        1.0  0.421201272237028  0.7684283394611471  0.6164726687961172  1.0000
  O   O6        1.0  0.07879872801770639  0.26842833913634717  0.8835273311869195  1.0000
  O   O7        1.0  0.5787987281680536  0.23157166070367619  0.383527331435557  1.0000
  O   O8        1.0  0.9212012722657779  0.7315716605436996  0.11647266852014147  1.0000
  O   O9        1.0  0.8455840471204309  0.7465167042444002  0.5504047639024973  1.0000
  O   O10       1.0  0.6544159513340089  0.24651670440437684  0.9495952361822195  1.0000
  O   O11       1.0  0.1544159531630534  0.25348329543564657  0.4495952358045638  1.0000
  O   O12       1.0  0.3455840469786887  0.7534832957604466  0.05040476404896676  1.0000
  O   O13       1.0  0.03244886894084732  0.6080773961615787  0.7529884581103646  1.0000
  O   O14       1.0  0.46755112922150316  0.10807739632155532  0.7470115418721842  1.0000
  O   O15       1.0  0.9675511293718503  0.39192260400324463  0.24701154212082166  1.0000
  O   O16       1.0  0.5324488689695972  0.891922603843268  0.2529884578343891  1.0000
  O   O17       1.0  0.08299917165110622  0.49970789041500363  0.7422583040150719  1.0000
  O   O18       1.0  0.41700082860362814  0.999707890255027  0.7577416959679646  1.0000
  O   O19       1.0  0.9170008286323781  0.5002921097498197  0.25774169569198907  1.0000
  O   O20       1.0  0.5829991718014534  0.0002921094250197159  0.24225830426370937  1.0000
  O   O21       1.0  0.025982332477341143  0.42920215308297394  0.9145730281676919  1.0000
  O   O22       1.0  0.47401766777739324  0.929202153407774  0.5854269718153445  1.0000
  O   O23       1.0  0.9740176679277404  0.5707978465970728  0.08542697206398189  1.0000
  O   O24       1.0  0.5259823304137071  0.07079784675704942  0.4145730278912289  1.0000
  S   S1        1.0  0.5585272696252276  0.7311798529282263  0.5645970195466516  1.0000
  S   S2        1.0  0.9414727309215961  0.23117985308820285  0.935402980538553  1.0000
  S   S3        1.0  0.44147273077985394  0.26882014675182053  0.4354029806850224  1.0000
  S   S4        1.0  0.05852726936188825  0.7688201470766205  0.06459701916850812  1.0000
  Cl  Cl1       1.0  0.8884159043283381  0.6105097958254777  0.4890876759475791  1.0000
  Cl  Cl2       1.0  0.6115840961054934  0.11050979598545434  0.010912324008119385  1.0000
  Cl  Cl3       1.0  0.11158409607674358  0.38949020433934567  0.510912324284095  1.0000
  Cl  Cl4       1.0  0.3884159041779908  0.889490204179369  0.9890876756989416  1.0000
