data_image0
_chemical_formula_structural       H74C70O6Br4I6
_chemical_formula_sum              "H74 C70 O6 Br4 I6"
_cell_length_a       10.105543332442464
_cell_length_b       12.821605558431994
_cell_length_c       14.67357846005871
_cell_angle_alpha    106.62722581926165
_cell_angle_beta     98.23640627071579
_cell_angle_gamma    93.50341093104592

_space_group_name_H-M_alt    "P 1"
_space_group_IT_number       1

loop_
  _space_group_symop_operation_xyz
  'x, y, z'

loop_
  _atom_site_type_symbol
  _atom_site_label
  _atom_site_symmetry_multiplicity
  _atom_site_fract_x
  _atom_site_fract_y
  _atom_site_fract_z
  _atom_site_occupancy
  H   H1        1.0  0.43170888918184924  0.6518564113099304  0.06820015613413997  1.0000
  H   H2        1.0  0.5682911107785585  0.34814358847028964  0.9317998442420689  1.0000
  H   H3        1.0  0.28210831854730467  0.581894708641589  0.991640438377558  1.0000
  H   H4        1.0  0.7178916812806672  0.4181052916614709  0.008359561267430822  1.0000
  H   H5        1.0  0.3284384793836215  0.11276695736882406  0.9661956087988576  1.0000
  H   H6        1.0  0.6715615204443504  0.8872330429342359  0.03380439084613116  1.0000
  H   H7        1.0  0.21265660553201057  0.18392121722323693  0.9110802797792189  1.0000
  H   H8        1.0  0.7873433942959612  0.816078783079823  0.08891971986576987  1.0000
  H   H9        1.0  0.6638769458727308  0.4636031892163826  0.29734469161576266  1.0000
  H   H10       1.0  0.3361230539552411  0.5363968110866772  0.7026553080292262  1.0000
  H   H11       1.0  0.6420937788482812  0.31823753321031867  0.2601734420469553  1.0000
  H   H12       1.0  0.35790622111212667  0.6817624665699014  0.7398265583292535  1.0000
  H   H13       1.0  0.6582561655665987  0.5948127240464431  0.24494756168395918  1.0000
  H   H14       1.0  0.3417438354235799  0.405187276525667  0.7550524386806111  1.0000
  H   H15       1.0  0.5421606738092063  0.6630968375549294  0.19013882257255044  1.0000
  H   H16       1.0  0.4578393259790762  0.3369031619702626  0.8098611770822274  1.0000
  H   H17       1.0  0.19012447476074282  0.009119901200085554  0.8215574143362292  1.0000
  H   H18       1.0  0.809875525067229  0.9908800991029746  0.17844258530875975  1.0000
  H   H19       1.0  0.16240347201731323  0.8410327143441876  0.6863562056772697  1.0000
  H   H20       1.0  0.8375965279827842  0.15896728621390047  0.31364379468915016  1.0000
  H   H21       1.0  0.2411075673784901  0.45557716196448916  0.895014029030071  1.0000
  H   H22       1.0  0.7588924324494818  0.5444228383385707  0.10498597061491784  1.0000
  H   H23       1.0  0.223870350374596  0.31383639071424707  0.8600802074431894  1.0000
  H   H24       1.0  0.7761296494136863  0.6861636088109447  0.13991979221158854  1.0000
  H   H25       1.0  0.20475399569541755  0.9293026849651875  0.009416859038562252  1.0000
  H   H26       1.0  0.79524600430468  0.0706973155929005  0.9905831413278575  1.0000
  H   H27       1.0  0.528641057378481  0.1274116508428928  0.02382671352513821  1.0000
  H   H28       1.0  0.47135894262161643  0.8725883497151953  0.9761732868412816  1.0000
  H   H29       1.0  0.6364240914326641  0.19655486673403263  0.13113874147780227  1.0000
  H   H30       1.0  0.3635759083953079  0.8034451335690274  0.8688612581671866  1.0000
  H   H31       1.0  0.28767632201195437  0.7513229380040073  0.0014018652392777827  1.0000
  H   H32       1.0  0.712323677776328  0.2486770615211846  0.9985981344155  1.0000
  H   H33       1.0  0.990216416741446  0.39186481820785424  0.12316643642736992  1.0000
  H   H34       1.0  0.009783583218961745  0.6081351815723658  0.8768335639488388  1.0000
  H   H35       1.0  0.8264261325145486  0.38799026205111853  0.37845437106532664  1.0000
  H   H36       1.0  0.17357386748554868  0.6120097385069694  0.6215456293010931  1.0000
  H   H37       1.0  0.3761586323121953  0.6313701525579675  0.29434913551315434  1.0000
  H   H38       1.0  0.6238413674760871  0.36862984696722445  0.7056508641416236  1.0000
  H   H39       1.0  0.5293999071560638  0.7066107469796413  0.3633816750513973  1.0000
  H   H40       1.0  0.47060009263221864  0.2933892525455506  0.6366183246033806  1.0000
  H   H41       1.0  0.49539589034111037  0.5657894797975799  0.3532551002670321  1.0000
  H   H42       1.0  0.504604109447172  0.4342105197276121  0.6467448993877458  1.0000
  H   H43       1.0  0.053462075193287065  0.3888357928419679  0.464792750353946  1.0000
  H   H44       1.0  0.9465379248068103  0.61116420771612  0.5352072500124737  1.0000
  H   H45       1.0  0.5484170908031594  0.12213394461402889  0.7326271059754108  1.0000
  H   H46       1.0  0.45158290919693794  0.8778660559440592  0.267372894391009  1.0000
  H   H47       1.0  0.22081739155585875  0.3941871421989487  0.2102097507294239  1.0000
  H   H48       1.0  0.7791826082324238  0.6058128573262432  0.789790248925354  1.0000
  H   H49       1.0  0.33884248905401226  0.11707449065881369  0.12073714510026576  1.0000
  H   H50       1.0  0.6611575117243513  0.8829255088804003  0.8792628545526626  1.0000
  H   H51       1.0  0.45401612741790587  0.1788308009417195  0.22758100659996316  1.0000
  H   H52       1.0  0.5459838725821915  0.8211691996163685  0.7724189937664566  1.0000
  H   H53       1.0  0.4772981412157273  0.048315333394552774  0.15221279328556647  1.0000
  H   H54       1.0  0.5227018587446806  0.9516846663856674  0.8477872070906424  1.0000
  H   H55       1.0  0.14460653438916818  0.7555163237373171  0.26589527391253054  1.0000
  H   H56       1.0  0.8553934656109292  0.2444836768207709  0.7341047264538892  1.0000
  H   H57       1.0  0.057877875944045094  0.9345985887605075  0.27231411696439306  1.0000
  H   H58       1.0  0.9421221240560522  0.06540141179758044  0.7276858834020267  1.0000
  H   H59       1.0  0.5199506013650242  0.9524785223246023  0.5946943278876233  1.0000
  H   H60       1.0  0.4800493984232581  0.04752147720058957  0.4053056717671545  1.0000
  H   H61       1.0  0.0065477558865563185  0.39470816093162403  0.8951933776419047  1.0000
  H   H62       1.0  0.993452243901726  0.6052918385935679  0.10480662201287308  1.0000
  H   H63       1.0  0.085103658257727  0.45538913403260883  0.017348162864344017  1.0000
  H   H64       1.0  0.9148963415702449  0.544610866270451  0.9826518367806448  1.0000
  H   H65       1.0  0.055424999794877555  0.3108438071880908  0.9691091761087124  1.0000
  H   H66       1.0  0.944574999993405  0.689156192337101  0.030890823546065423  1.0000
  H   H67       1.0  0.9503763805436601  0.8409916061235784  0.5482888704756641  1.0000
  H   H68       1.0  0.04962361928431168  0.15900839417948143  0.4517111291693247  1.0000
  H   H69       1.0  0.7790066191668565  0.7799942490204829  0.5090460375271488  1.0000
  H   H70       1.0  0.22099338066111535  0.220005751282577  0.49095396211784  1.0000
  H   H71       1.0  0.9595789276342228  0.8662204666765111  0.386889161413163  1.0000
  H   H72       1.0  0.04042107219374913  0.13377953362654868  0.6131108382318259  1.0000
  H   H73       1.0  0.7848267092818457  0.8146117583106741  0.3465863364082868  1.0000
  H   H74       1.0  0.2151732914965178  0.18538824122854  0.6534136632446417  1.0000
  C   C1        1.0  0.2238629032687179  0.742357025795982  0.1346146823660444  1.0000
  C   C2        1.0  0.77613709669169  0.257642973984238  0.8653853180101644  1.0000
  C   C3        1.0  0.5353538075556697  0.3900361593206241  0.15807532283772574  1.0000
  C   C4        1.0  0.4646461922723021  0.6099638409824358  0.841924676807263  1.0000
  C   C5        1.0  0.3436731071977108  0.594136242278561  0.06230360958020064  1.0000
  C   C6        1.0  0.6563268928023865  0.40586375827952703  0.9376963907862192  1.0000
  C   C7        1.0  0.3196272288946488  0.1836201177349556  0.9387026016929325  1.0000
  C   C8        1.0  0.680372771065759  0.8163798820452645  0.06129739868327629  1.0000
  C   C9        1.0  0.6522028770539577  0.3904409217354916  0.2344900198476285  1.0000
  C   C10       1.0  0.3477971229461396  0.6095590788225964  0.7655099805187914  1.0000
  C   C11       1.0  0.5500236324597403  0.5969511642357402  0.22361066118572406  1.0000
  C   C12       1.0  0.4499763673682316  0.40304883606731956  0.7763893384592647  1.0000
  C   C13       1.0  0.3762647700019528  0.2894003115314085  0.014495896702941793  1.0000
  C   C14       1.0  0.6237352299981447  0.7105996890266795  0.985504103663478  1.0000
  C   C15       1.0  0.33084676536980856  0.38806469892907464  0.0050870456413852  1.0000
  C   C16       1.0  0.6691532346302888  0.6119353016290133  0.9949129547250345  1.0000
  C   C17       1.0  0.48013082823005404  0.289760414941281  0.08967470066339013  1.0000
  C   C18       1.0  0.5198691715979178  0.7102395853617788  0.9103252989815988  1.0000
  C   C19       1.0  0.3864838714946629  0.48793142191296945  0.07419001064244005  1.0000
  C   C20       1.0  0.6135161294558262  0.5120685778812727  0.9258099897319193  1.0000
  C   C21       1.0  0.37130788317512686  0.07741590595449792  0.7857219583188179  1.0000
  C   C22       1.0  0.6286921167852809  0.922584093825722  0.21427804205739084  1.0000
  C   C23       1.0  0.4891733884760451  0.48949561807883274  0.15094029246608237  1.0000
  C   C24       1.0  0.5108266113519269  0.510504382224227  0.8490597071789066  1.0000
  C   C25       1.0  0.26275800174207714  0.9983423361857876  0.772405172155838  1.0000
  C   C26       1.0  0.7372419982183307  0.001657663594432464  0.22759482822037078  1.0000
  C   C27       1.0  0.24696302951111265  0.9021352469609767  0.6952340054519748  1.0000
  C   C28       1.0  0.7530369702771696  0.09786475256421523  0.30476599420280315  1.0000
  C   C29       1.0  0.22229655519773037  0.3856117317310111  0.9220151725715334  1.0000
  C   C30       1.0  0.7777034446302415  0.6143882685720489  0.07798482707345543  1.0000
  C   C31       1.0  0.19121958422497434  0.8917717286590408  0.06581208597132297  1.0000
  C   C32       1.0  0.8087804157354337  0.10822827112117915  0.9341879144048858  1.0000
  C   C33       1.0  0.33946313838221953  0.8859183173482881  0.6319591962378474  1.0000
  C   C34       1.0  0.6605368615781881  0.11408168243193172  0.3680408041383613  1.0000
  C   C35       1.0  0.5304109034114021  0.18309754488997632  0.0966466020803777  1.0000
  C   C36       1.0  0.4695890963768803  0.8169024546352155  0.9033533975744  1.0000
  C   C37       1.0  0.8934910334163454  0.38901358685582016  0.24421196301825604  1.0000
  C   C38       1.0  0.10650896658375206  0.6109864137022678  0.7557880373481638  1.0000
  C   C39       1.0  0.2393711578228214  0.790959881670368  0.061875179914510026  1.0000
  C   C40       1.0  0.7606288431673572  0.20904011890174204  0.9381248204500603  1.0000
  C   C41       1.0  0.00566948606502832  0.39107035359725106  0.19793332925730586  1.0000
  C   C42       1.0  0.9943305137629435  0.6089296467058087  0.802066670387683  1.0000
  C   C43       1.0  0.9115868635043055  0.3887425466389512  0.34063129320314983  1.0000
  C   C44       1.0  0.08841313632366628  0.6112574536641086  0.6593687064418389  1.0000
  C   C45       1.0  0.4840717285466216  0.6267555908688772  0.31397114972123097  1.0000
  C   C46       1.0  0.5159282714534759  0.3732444096892108  0.6860288506451888  1.0000
  C   C47       1.0  0.04117851488186322  0.3893665048597722  0.38985084030329104  1.0000
  C   C48       1.0  0.958821484906419  0.6106334946654196  0.6101491593514867  1.0000
  C   C49       1.0  0.15172521269893802  0.39069671455248833  0.3429706101411447  1.0000
  C   C50       1.0  0.8482747873011593  0.6093032860055997  0.6570293902252751  1.0000
  C   C51       1.0  0.4629138898464996  0.060959643620351306  0.7206975999641885  1.0000
  C   C52       1.0  0.5370861099814722  0.9390403566827087  0.2793023996808004  1.0000
  C   C53       1.0  0.13465001965216294  0.39229358582938106  0.24696799166952232  1.0000
  C   C54       1.0  0.8653499803479343  0.6077064147287069  0.7530320086968975  1.0000
  C   C55       1.0  0.44587309687011045  0.1284955589435029  0.15220841595449106  1.0000
  C   C56       1.0  0.554126902918172  0.8715044405816892  0.8477915837002868  1.0000
  C   C57       1.0  0.15776341925615983  0.7945938601307355  0.21032965871308176  1.0000
  C   C58       1.0  0.8422365805321227  0.2054061393944564  0.7896703409416961  1.0000
  C   C59       1.0  0.12581434287909193  0.9430392154144019  0.14131138876109395  1.0000
  C   C60       1.0  0.8741856571210053  0.056960785143686035  0.8586886116053258  1.0000
  C   C61       1.0  0.10794151587687832  0.8940136742201324  0.21306937861628514  1.0000
  C   C62       1.0  0.8920584839114041  0.10598632530505957  0.7869306210384928  1.0000
  C   C63       1.0  0.4473170864932807  0.9652266071114537  0.6440190351351731  1.0000
  C   C64       1.0  0.5526829133346912  0.03477339319160615  0.35598096450981576  1.0000
  C   C65       1.0  0.08404201695300614  0.38657719816175934  0.9524121686177555  1.0000
  C   C66       1.0  0.9159579830074017  0.6134228016184606  0.04758783175845331  1.0000
  C   C67       1.0  0.8570356836166333  0.8364412654242238  0.49844385681334186  1.0000
  C   C68       1.0  0.14296431621133873  0.16355873487883624  0.501556142831647  1.0000
  C   C69       1.0  0.8768520446117547  0.8122621829601123  0.3951019788481062  1.0000
  C   C70       1.0  0.12314795517652759  0.18773781656507949  0.6048980208066717  1.0000
  O   O1        1.0  0.266723852889351  0.6438870071497586  0.13651788935010495  1.0000
  O   O2        1.0  0.7332761469386209  0.35611299315330125  0.863482110294884  1.0000
  O   O3        1.0  0.7717924139973668  0.3885048920729243  0.18963271024053702  1.0000
  O   O4        1.0  0.22820758583060521  0.6114951082301356  0.8103672894044519  1.0000
  O   O5        1.0  0.3971941858377862  0.17177683211535524  0.8610530057995767  1.0000
  O   O6        1.0  0.6028058141226217  0.8282231676648648  0.13894699457663212  1.0000
  Br  Br1       1.0  0.9270297136722476  0.661832338164046  0.3509922307800002  1.0000
  Br  Br2       1.0  0.07297028628816031  0.3381676616161741  0.6490077695962085  1.0000
  Br  Br3       1.0  0.7930117597695692  0.982365246734153  0.5367535231447457  1.0000
  Br  Br4       1.0  0.2069882400187131  0.017634752791038828  0.46324647651003215  1.0000
  I   I1        1.0  0.3146662277534188  0.7427994447737242  0.51380088444403  1.0000
  I   I2        1.0  0.685333772206989  0.2572005550064958  0.48619911593217874  1.0000
  I   I3        1.0  0.3467072789482714  0.38429458905037184  0.41442243904827064  1.0000
  I   I4        1.0  0.6532927208797006  0.6157054112526881  0.5855775605967183  1.0000
  I   I5        1.0  0.061490342483967196  0.09886740587103476  0.15181529113809442  1.0000
  I   I6        1.0  0.9385096574764406  0.9011325939091853  0.8481847092381144  1.0000
