data_image0
_chemical_formula_structural       H20C30N2I2
_chemical_formula_sum              "H20 C30 N2 I2"
_cell_length_a       5.966160904229736
_cell_length_b       7.942268781352335
_cell_length_c       12.755806446546673
_cell_angle_alpha    86.27968545355589
_cell_angle_beta     84.6423754957295
_cell_angle_gamma    82.51178344196522

_space_group_name_H-M_alt    "P 1"
_space_group_IT_number       1

loop_
  _space_group_symop_operation_xyz
  'x, y, z'

loop_
  _atom_site_type_symbol
  _atom_site_label
  _atom_site_symmetry_multiplicity
  _atom_site_fract_x
  _atom_site_fract_y
  _atom_site_fract_z
  _atom_site_occupancy
  H   H1        1.0  0.344443688260737  0.39811985121611604  0.04945213882027897  1.0000
  H   H2        1.0  0.6555563114103415  0.601880149117678  0.9505478612474358  1.0000
  H   H3        1.0  0.11443018776193045  0.35321869749524054  0.9043994132999843  1.0000
  H   H4        1.0  0.8855698119091483  0.6467813028385535  0.09560058676773049  1.0000
  H   H5        1.0  0.6549983925124422  0.9859233355015713  0.7786330573320854  1.0000
  H   H6        1.0  0.3450016071586364  0.014076664832222885  0.22136694273562932  1.0000
  H   H7        1.0  0.8872889814214375  0.03731458499675486  0.918482283955539  1.0000
  H   H8        1.0  0.11271101824964094  0.9626854153370393  0.08151771611217586  1.0000
  H   H9        1.0  0.060476903739714004  0.2290013965936144  0.7515672602008846  1.0000
  H   H10       1.0  0.9395230959313646  0.7709986037401797  0.24843273986683007  1.0000
  H   H11       1.0  0.4310373639375042  0.9518619862095355  0.6666818981855664  1.0000
  H   H12       1.0  0.5689626376328997  0.048138012856916046  0.3333181018827533  1.0000
  H   H13       1.0  0.8356396256245806  0.19377845000174032  0.6405857891262446  1.0000
  H   H14       1.0  0.164360374046498  0.8062215503320538  0.3594142109414702  1.0000
  H   H15       1.0  0.38437122291101644  0.8404436140994443  0.5072855710229488  1.0000
  H   H16       1.0  0.6156287767600623  0.15955638623434967  0.4927144290447659  1.0000
  H   H17       1.0  0.6638368000217225  0.5258763259100432  0.3137442837759082  1.0000
  H   H18       1.0  0.33616319964935615  0.47412367442375086  0.6862557162918066  1.0000
  H   H19       1.0  0.13109812010851726  0.38646696636505595  0.5433032790865368  1.0000
  H   H20       1.0  0.8689018795625613  0.6135330339687382  0.45669672098117803  1.0000
  C   C1        1.0  0.7718129388891182  0.2541321153142939  0.07219002723109054  1.0000
  C   C2        1.0  0.22818706245850745  0.7458678850225179  0.9278099728316779  1.0000
  C   C3        1.0  0.6326560240985083  0.22336160480742734  0.9926779813826498  1.0000
  C   C4        1.0  0.36734397557257037  0.7766383955263667  0.007322018685065079  1.0000
  C   C5        1.0  0.41237611690985926  0.31054824656666963  0.9888256191431621  1.0000
  C   C6        1.0  0.5876238827612194  0.6894517537671244  0.011174380924552701  1.0000
  C   C7        1.0  0.2833049329441398  0.28310401475041963  0.9081879571466601  1.0000
  C   C8        1.0  0.7166950667269388  0.7168959855833744  0.0918120429210547  1.0000
  C   C9        1.0  0.3655981529691064  0.16670673864343996  0.8303774780801888  1.0000
  C   C10       1.0  0.6344018467019723  0.8332932616903542  0.16962252198752603  1.0000
  C   C11       1.0  0.5858381333514059  0.0782962648951906  0.8364451623821422  1.0000
  C   C12       1.0  0.41416186654245085  0.9217037341682434  0.16355483769112394  1.0000
  C   C13       1.0  0.7178957640599314  0.10637107708599773  0.9156273323862785  1.0000
  C   C14       1.0  0.282104235611147  0.8936289232477964  0.08437266768143634  1.0000
  C   C15       1.0  0.22130068969488326  0.14521734439394635  0.7482576159159409  1.0000
  C   C16       1.0  0.7786993099761952  0.8547826559398477  0.2517423841517741  1.0000
  C   C17       1.0  0.2703698187600467  0.035716533210584205  0.6698015413821525  1.0000
  C   C18       1.0  0.729630181270499  0.9642834659118059  0.3301984579026267  1.0000
  C   C19       1.0  0.12927639328159074  0.019516594022857922  0.585576334851834  1.0000
  C   C20       1.0  0.8707236063894878  0.9804834063109362  0.4144236652158807  1.0000
  C   C21       1.0  0.9098311963357175  0.10866793400376748  0.5793673971655019  1.0000
  C   C22       1.0  0.09016880333536113  0.8913320663300266  0.4206326029022129  1.0000
  C   C23       1.0  0.21546419099230055  0.9105828150689976  0.5040998117770349  1.0000
  C   C24       1.0  0.784535808678778  0.08941718526479644  0.4959001882906799  1.0000
  C   C25       1.0  0.5909736041451992  0.5154795772547093  0.39501963047247346  1.0000
  C   C26       1.0  0.40902639720242656  0.48452042308210275  0.604980369590295  1.0000
  C   C27       1.0  0.3837598086472356  0.45209427138772434  0.41943799636989376  1.0000
  C   C28       1.0  0.6162401912466212  0.5479057276757096  0.5805620037033723  1.0000
  C   C29       1.0  0.2924122495268685  0.4362995495380133  0.5240716812310892  1.0000
  C   C30       1.0  0.7075877503669882  0.5637004495254206  0.4759283188421769  1.0000
  N   N1        1.0  0.8916807311539097  0.2803678838524984  0.1351638120704263  1.0000
  N   N2        1.0  0.10831926851716905  0.7196321164812955  0.8648361879972885  1.0000
  I   I1        1.0  0.2065535974326058  0.37791214165281667  0.2979277243932353  1.0000
  I   I2        1.0  0.7934464022384727  0.6220878586809774  0.7020722756744796  1.0000
