data_image0
_chemical_formula_structural       H46C32N4O24P6
_chemical_formula_sum              "H46 C32 N4 O24 P6"
_cell_length_a       7.216819165762288
_cell_length_b       12.55562864682107
_cell_length_c       12.589593549341757
_cell_angle_alpha    83.77623349067912
_cell_angle_beta     73.65817730350379
_cell_angle_gamma    84.9333053565176

_space_group_name_H-M_alt    "P 1"
_space_group_IT_number       1

loop_
  _space_group_symop_operation_xyz
  'x, y, z'

loop_
  _atom_site_type_symbol
  _atom_site_label
  _atom_site_symmetry_multiplicity
  _atom_site_fract_x
  _atom_site_fract_y
  _atom_site_fract_z
  _atom_site_occupancy
  H   H1        1.0  0.8746986998613624  0.6182978246704468  0.18106631774609433  1.0000
  H   H2        1.0  0.125301300414509  0.3817021756414911  0.8189336823384618  1.0000
  H   H3        1.0  0.1717375701724105  0.18025457794356978  0.5579849865190838  1.0000
  H   H4        1.0  0.8282624288244093  0.8197454215688652  0.44201501359186535  1.0000
  H   H5        1.0  0.21320818577371362  0.44383095464778727  0.023322796867927688  1.0000
  H   H6        1.0  0.7867918145021577  0.5561690456641506  0.9766772032166283  1.0000
  H   H7        1.0  0.0727878657588934  0.25890639069532106  0.3403630544787721  1.0000
  H   H8        1.0  0.9272121345169777  0.7410936096166169  0.6596369456057839  1.0000
  H   H9        1.0  0.3682403360119444  0.10445160678202767  0.04304803289425295  1.0000
  H   H10       1.0  0.6317596628664723  0.8955483935300742  0.9569519672156196  1.0000
  H   H11       1.0  0.6179381884548494  0.43289053291250384  0.8008905556522552  1.0000
  H   H12       1.0  0.3820618118210218  0.567109467399434  0.1991094444323009  1.0000
  H   H13       1.0  0.17337424109699331  0.17373210975541584  0.8303004261198977  1.0000
  H   H14       1.0  0.826625759178878  0.8262678905565221  0.16969957396465818  1.0000
  H   H15       1.0  0.024689927078622127  0.08692749604067229  0.8155194464391045  1.0000
  H   H16       1.0  0.9753100733156522  0.9130725034715987  0.18448055364652835  1.0000
  H   H17       1.0  0.12997520646862737  0.09078747755671426  0.3957003595400863  1.0000
  H   H18       1.0  0.870024793925647  0.9092125219555568  0.6042996405455464  1.0000
  H   H19       1.0  0.9625594548636675  0.24370490836307293  0.5623388002190632  1.0000
  H   H20       1.0  0.03744054553060701  0.7562950911491982  0.4376611998665695  1.0000
  H   H21       1.0  0.9725019257855253  0.08909204057065145  0.6568495755027791  1.0000
  H   H22       1.0  0.027498074490345997  0.9109079597412866  0.3431504245817769  1.0000
  H   H23       1.0  0.8759324608187258  0.3900431709389346  0.4773623695035065  1.0000
  H   H24       1.0  0.12406753945714541  0.6099568293730033  0.5226376305810495  1.0000
  H   H25       1.0  0.8412059567430392  0.39378947420080423  0.610706813947164  1.0000
  H   H26       1.0  0.1587940435328323  0.6062105261111337  0.38929318613739206  1.0000
  H   H27       1.0  0.7431506006413101  0.21882366281544546  0.9376944782332005  1.0000
  H   H28       1.0  0.25684939823710656  0.7811763374966564  0.062305521876671925  1.0000
  H   H29       1.0  0.37845071438146777  0.28562519465106895  0.672999816204533  1.0000
  H   H30       1.0  0.6215492860128068  0.7143748048612021  0.3270001838810997  1.0000
  H   H31       1.0  0.5716343876593278  0.13124105843839076  0.6198566785305989  1.0000
  H   H32       1.0  0.4283656126165436  0.8687589418735472  0.3801433215539571  1.0000
  H   H33       1.0  0.7268595672796915  0.10934106677455128  0.4170792709550358  1.0000
  H   H34       1.0  0.27314043299617985  0.8906589335373868  0.5829207291295202  1.0000
  H   H35       1.0  0.44029474109739253  0.41571197322696146  0.34290003061670316  1.0000
  H   H36       1.0  0.5597052578994272  0.5842880262854735  0.6570999694942461  1.0000
  H   H37       1.0  0.304823751225862  0.42734629336574204  0.5484002809869268  1.0000
  H   H38       1.0  0.6951762490500092  0.5726537069461959  0.4515997190976292  1.0000
  H   H39       1.0  0.7032876812487497  0.07589595193376464  0.25773244139068857  1.0000
  H   H40       1.0  0.2967123191455246  0.9241040475785064  0.7422675586949442  1.0000
  H   H41       1.0  0.812570308816788  0.9784869453058176  0.09162212161983625  1.0000
  H   H42       1.0  0.18742969145908325  0.021513055006120378  0.9083778784647197  1.0000
  H   H43       1.0  0.7245372439305593  0.39298505167924197  0.9900125284821462  1.0000
  H   H44       1.0  0.2754627567001246  0.6070149487018668  0.009987470771867348  1.0000
  H   H45       1.0  0.6553966499937304  0.4228909577337006  0.19038805493866393  1.0000
  H   H46       1.0  0.34460335063695335  0.577109042647408  0.8096119443153496  1.0000
  C   C1        1.0  0.3017563845569259  0.2757870491566031  0.019902221618620243  1.0000
  C   C2        1.0  0.6982436157189454  0.7242129511553348  0.9800977784659357  1.0000
  C   C3        1.0  0.2146393742966843  0.3674824621591547  0.07297600026165021  1.0000
  C   C4        1.0  0.78536062609759  0.6325175373531163  0.9270239998239826  1.0000
  C   C5        1.0  0.1330927079516172  0.3628606076474319  0.1879912262570404  1.0000
  C   C6        1.0  0.8669072909267996  0.63713939266467  0.812008773852832  1.0000
  C   C7        1.0  0.13425173610694058  0.2636396138217589  0.2503032246832111  1.0000
  C   C8        1.0  0.8657482642873339  0.7363603856905121  0.7496967754024217  1.0000
  C   C9        1.0  0.21333649956318015  0.17023186872636023  0.19829550464733212  1.0000
  C   C10       1.0  0.7866635007126911  0.8297681315855777  0.8017044954372239  1.0000
  C   C11       1.0  0.29908392822059987  0.1762162111810784  0.0829108319140216  1.0000
  C   C12       1.0  0.7009160720552712  0.8237837891308596  0.9170891681705344  1.0000
  C   C13       1.0  0.5514701100320395  0.19158890111385493  0.5535649940536912  1.0000
  C   C14       1.0  0.44852989036223495  0.8084110983984161  0.4464350060319416  1.0000
  C   C15       1.0  0.6334683312286915  0.18056820144733593  0.4415120527954404  1.0000
  C   C16       1.0  0.36653166764972545  0.8194317988647659  0.558487947314432  1.0000
  C   C17       1.0  0.5976381086868869  0.26109159141471483  0.3618785104135393  1.0000
  C   C18       1.0  0.40236189170738756  0.7389084080975562  0.6381214896720935  1.0000
  C   C19       1.0  0.4785900316851379  0.35191948342566215  0.4000624760802026  1.0000
  C   C20       1.0  0.5214099685907333  0.6480805168862758  0.5999375240043534  1.0000
  C   C21       1.0  0.3997079751402173  0.3597200446383886  0.5126971615120067  1.0000
  C   C22       1.0  0.600292025254057  0.6402799548738825  0.487302838573626  1.0000
  C   C23       1.0  0.6721022746768959  0.24996560819781183  0.24141258932356663  1.0000
  C   C24       1.0  0.3278977260721909  0.75003439138363  0.7585874099315236  1.0000
  C   C25       1.0  0.716602675862543  0.14883194468576968  0.20226431960490754  1.0000
  C   C26       1.0  0.28339732301587384  0.8511680556263321  0.7977356805049649  1.0000
  C   C27       1.0  0.7508440659915461  0.1375981135796486  0.08790897507428351  1.0000
  C   C28       1.0  0.2491559330052738  0.8624018859327865  0.9120910250366657  1.0000
  C   C29       1.0  0.7212695587300247  0.3275968444533634  0.05412576943261568  1.0000
  C   C30       1.0  0.2787304415458465  0.6724031558585747  0.9458742306519403  1.0000
  C   C31       1.0  0.6817783869388315  0.341801912690711  0.16483311226441816  1.0000
  C   C32       1.0  0.31822161333703974  0.658198087621227  0.8351668878201378  1.0000
  N   N1        1.0  0.4364658765611861  0.2794328170358455  0.5857482136907183  1.0000
  N   N2        1.0  0.5635341237146853  0.7205671832760924  0.41425178639383775  1.0000
  N   N3        1.0  0.7533160161791679  0.2281484804799707  0.01816322178238903  1.0000
  N   N4        1.0  0.24668398409670353  0.7718515198319674  0.981836778302167  1.0000
  O   O1        1.0  0.4880733466628186  0.4138874927058093  0.8599122031923017  1.0000
  O   O2        1.0  0.5119266523340011  0.5861125068066257  0.14008779691864764  1.0000
  O   O3        1.0  0.28804599245585283  0.2854429255886244  0.8037738638033246  1.0000
  O   O4        1.0  0.7119540079384215  0.7145570739236468  0.19622613628230812  1.0000
  O   O5        1.0  0.6093489346784006  0.21508442609212922  0.8463750371725409  1.0000
  O   O6        1.0  0.3906510659522834  0.7849155742889793  0.15362496208147253  1.0000
  O   O7        1.0  0.979409096460395  0.5581872746252885  0.16133965017319518  1.0000
  O   O8        1.0  0.020590902418021736  0.44181272568681346  0.8386603499366773  1.0000
  O   O9        1.0  0.8705159423705126  0.45978816987667653  0.3579546333125876  1.0000
  O   O10       1.0  0.12948405802376184  0.5402118296355944  0.6420453667730451  1.0000
  O   O11       1.0  0.21024419192011456  0.5291198769183019  0.28498307514775684  1.0000
  O   O12       1.0  0.7897558083557569  0.47088012339363605  0.7150169249367991  1.0000
  O   O13       1.0  0.41415495765198806  0.998324415891092  0.2848740263761339  1.0000
  O   O14       1.0  0.5858450426238831  0.0016755844208458845  0.7151259737084222  1.0000
  O   O15       1.0  0.06092950093268497  0.9752370382973052  0.27836667693286427  1.0000
  O   O16       1.0  0.939070499816402  0.02476296128413641  0.721633322322226  1.0000
  O   O17       1.0  0.7686652878936007  0.047389913052770564  0.04290172131881297  1.0000
  O   O18       1.0  0.23133471238227057  0.9526100872591673  0.957098278765743  1.0000
  O   O19       1.0  0.0997035350863637  0.1086921019254007  0.8631034966334753  1.0000
  O   O20       1.0  0.9002964655443202  0.8913078984557079  0.13689650262053807  1.0000
  O   O21       1.0  0.036786099671384666  0.16747344990980922  0.568263811772456  1.0000
  O   O22       1.0  0.9632139007228896  0.8325265496024619  0.4317361883131767  1.0000
  O   O23       1.0  0.8604280478917691  0.34528845364578614  0.5499108358937492  1.0000
  O   O24       1.0  0.13957195238410203  0.6547115466661518  0.45008916419080686  1.0000
  P   P1        1.0  0.43485891693476175  0.29243243536042673  0.872950793236927  1.0000
  P   P2        1.0  0.5651410833411096  0.7075675649515113  0.12704920684762888  1.0000
  P   P3        1.0  0.03956093347623273  0.48333807636939125  0.25776483319565263  1.0000
  P   P4        1.0  0.9604390669180417  0.5166619231428798  0.7422351668899801  1.0000
  P   P5        1.0  0.21763364524252954  0.05031288354821483  0.29122957562704455  1.0000
  P   P6        1.0  0.7823663550333416  0.9496871167637231  0.7087704244575115  1.0000
