data_image0
_chemical_formula_structural       H24C44N4S8
_chemical_formula_sum              "H24 C44 N4 S8"
_cell_length_a       7.824542451359075
_cell_length_b       9.190304016357016
_cell_length_c       13.805227488808434
_cell_angle_alpha    93.82326414938811
_cell_angle_beta     102.95404589342867
_cell_angle_gamma    104.09918912688732

_space_group_name_H-M_alt    "P 1"
_space_group_IT_number       1

loop_
  _space_group_symop_operation_xyz
  'x, y, z'

loop_
  _atom_site_type_symbol
  _atom_site_label
  _atom_site_symmetry_multiplicity
  _atom_site_fract_x
  _atom_site_fract_y
  _atom_site_fract_z
  _atom_site_occupancy
  H   H1        1.0  0.9834223925448872  0.015573593256067565  0.3117282477828718  1.0000
  H   H2        1.0  0.016577607182594753  0.9844264061063404  0.6882717522337147  1.0000
  H   H3        1.0  0.8221808168520424  0.7625740027623027  0.21977609576785173  1.0000
  H   H4        1.0  0.17781918323040907  0.2374259977313105  0.7802239043494971  1.0000
  H   H5        1.0  0.888604748202879  0.5313681717943799  0.28631261275155717  1.0000
  H   H6        1.0  0.11139525187957242  0.46863182869923337  0.7136873873657916  1.0000
  H   H7        1.0  0.11484926842681514  0.5524137691247745  0.44763917798693503  1.0000
  H   H8        1.0  0.8851507316556363  0.4475862313688388  0.5523608221304138  1.0000
  H   H9        1.0  0.35600448870667756  0.6329231845946908  0.6177998953831394  1.0000
  H   H10       1.0  0.643995511385833  0.3670768159074639  0.38220010401153537  1.0000
  H   H11       1.0  0.6005672672381364  0.7640344536083707  0.7674654111717427  1.0000
  H   H12       1.0  0.399432732844315  0.23596554688524246  0.23253458894560614  1.0000
  H   H13       1.0  0.6974754102324933  0.04453291484413097  0.8002148279389987  1.0000
  H   H14       1.0  0.30252458949498856  0.9554670845182767  0.19978517207758792  1.0000
  H   H15       1.0  0.5497684792281341  0.198225384070389  0.6858153414930706  1.0000
  H   H16       1.0  0.4502315208543174  0.8017746164232242  0.31418465862427836  1.0000
  H   H17       1.0  0.07258819607261532  0.6749025091879441  0.06062242394686729  1.0000
  H   H18       1.0  0.9274118040098361  0.32509749130566895  0.9393775761704817  1.0000
  H   H19       1.0  0.22998273120321056  0.5863688129929903  0.22455848393233466  1.0000
  H   H20       1.0  0.7700172688792408  0.413631187500623  0.7754415161850142  1.0000
  H   H21       1.0  0.4735481143689818  0.10222750519484491  0.8875630550899879  1.0000
  H   H22       1.0  0.5264518857134696  0.8977724952987682  0.11243694502736098  1.0000
  H   H23       1.0  0.2536745922163502  0.8552858076085047  0.7831640867466215  1.0000
  H   H24       1.0  0.7463254078661012  0.1447141928851085  0.21683591337072725  1.0000
  C   C1        1.0  0.012898556838883348  0.9164879208633346  0.34284411861845543  1.0000
  C   C2        1.0  0.9871014432435681  0.08351207963027858  0.6571558814988935  1.0000
  C   C3        1.0  0.9225720609907585  0.7727951053550847  0.29045835784414237  1.0000
  C   C4        1.0  0.07742793910175194  0.22720489514706987  0.7095416415505323  1.0000
  C   C5        1.0  0.9588794969811691  0.6428904515586988  0.3280458240250556  1.0000
  C   C6        1.0  0.04112050310128231  0.3571095489349143  0.6719541760922934  1.0000
  C   C7        1.0  0.08605948885537187  0.6539725344762195  0.41955936996344234  1.0000
  C   C8        1.0  0.9139405112270795  0.3460274660173936  0.5804406301539066  1.0000
  C   C9        1.0  0.175546990929059  0.7962957663167383  0.47207250631485853  1.0000
  C   C10       1.0  0.8244530091634514  0.20370423418541642  0.5279274930798162  1.0000
  C   C11       1.0  0.3152147335858849  0.8419672140560936  0.5664826684087425  1.0000
  C   C12       1.0  0.6847852664965665  0.15803278643751958  0.43351733170860646  1.0000
  C   C13       1.0  0.39572777620678234  0.7559248119200308  0.6320873022513106  1.0000
  C   C14       1.0  0.6042722238756689  0.24407518857358235  0.3679126978660383  1.0000
  C   C15       1.0  0.5345434320031461  0.8304668948631092  0.716298174691106  1.0000
  C   C16       1.0  0.4654565677243358  0.16953310449929856  0.28370182532548055  1.0000
  C   C17       1.0  0.5886876028140173  0.9883816164541582  0.7346821911711974  1.0000
  C   C18       1.0  0.4113123972684341  0.011618384039455115  0.2653178089461515  1.0000
  C   C19       1.0  0.505749412961671  0.07579091330637205  0.6698944784848705  1.0000
  C   C20       1.0  0.4942505871207805  0.9242090871872413  0.33010552163247836  1.0000
  C   C21       1.0  0.36885142693281037  0.0029394238332449596  0.5849072134126033  1.0000
  C   C22       1.0  0.6311485731496411  0.9970605766603683  0.4150927867047455  1.0000
  C   C23       1.0  0.2608630388911317  0.060963778409292964  0.5027025540424689  1.0000
  C   C24       1.0  0.7391369611913197  0.9390362220843201  0.4972974460748799  1.0000
  C   C25       1.0  0.1407983918854737  0.9289161387164627  0.4337251304986796  1.0000
  C   C26       1.0  0.8592016078420082  0.07108386064594532  0.566274869517907  1.0000
  C   C27       1.0  0.2723825056713598  0.2116796592651515  0.4909791893608926  1.0000
  C   C28       1.0  0.727617494066181  0.7883203401057978  0.5090208099330198  1.0000
  C   C29       1.0  0.16033522536876121  0.2582554877606708  0.40997511163199674  1.0000
  C   C30       1.0  0.8396647747237491  0.7417445127414839  0.590024887762678  1.0000
  C   C31       1.0  0.39862585884900414  0.33175794901269834  0.5598314563796748  1.0000
  C   C32       1.0  0.6013741425466553  0.6682420514866714  0.44016854390885474  1.0000
  C   C33       1.0  0.1899737713879747  0.628858650165006  0.06956402952220316  1.0000
  C   C34       1.0  0.8100262283395072  0.3711413491974018  0.9304359704943834  1.0000
  C   C35       1.0  0.27140845428927246  0.5836727727793146  0.15443757535322905  1.0000
  C   C36       1.0  0.7285915454382094  0.4163272265830932  0.8455624246633575  1.0000
  C   C37       1.0  0.44352109215959035  0.5247791353350214  0.0244806916914861  1.0000
  C   C38       1.0  0.5564789075678914  0.47522086402738634  0.9755193083251005  1.0000
  C   C39       1.0  0.3403181245122029  0.048157840861702286  0.8982164024003  1.0000
  C   C40       1.0  0.6596818765284869  0.951842158506462  0.10178359778746718  1.0000
  C   C41       1.0  0.2268540255561555  0.9199848276722407  0.8442113970882035  1.0000
  C   C42       1.0  0.7731459741713265  0.0800151716901671  0.15578860292838315  1.0000
  C   C43       1.0  0.06141472855600448  0.9964670437561717  0.9722917010958269  1.0000
  C   C44       1.0  0.9385852711714774  0.0035329556062361606  0.02770829892075973  1.0000
  N   N1        1.0  0.0677304264975109  0.29924352684576755  0.3444860676958769  1.0000
  N   N2        1.0  0.9322695735849406  0.7007564736478457  0.6555139324214719  1.0000
  N   N3        1.0  0.5038620092206918  0.43084226579331686  0.6165068100015203  1.0000
  N   N4        1.0  0.49613799050679014  0.5691577335690908  0.38349319001506627  1.0000
  S   S1        1.0  0.27453365042658817  0.6074648333694798  0.9647320646199469  1.0000
  S   S2        1.0  0.7254663496558632  0.3925351671241334  0.03526793549740198  1.0000
  S   S3        1.0  0.45593890696702055  0.5114623600078093  0.151991017453042  1.0000
  S   S4        1.0  0.5440610931154309  0.48853764048580395  0.8480089826643068  1.0000
  S   S5        1.0  0.2704138936217429  0.13327392196940505  0.9928437892646027  1.0000
  S   S6        1.0  0.7295861061057389  0.8667260773930028  0.007156210751983882  1.0000
  S   S7        1.0  0.020577480107854634  0.85096066002263  0.8742199956973202  1.0000
  S   S8        1.0  0.9794225199745967  0.14903934047098313  0.12578000442002868  1.0000
