data_image0
_chemical_formula_structural       H48C18N18Cl12
_chemical_formula_sum              "H48 C18 N18 Cl12"
_cell_length_a       8.74683289961767
_cell_length_b       9.650687501290603
_cell_length_c       11.7702035901604
_cell_angle_alpha    104.53405169158025
_cell_angle_beta     91.13691142057087
_cell_angle_gamma    103.12145111578121

_space_group_name_H-M_alt    "P 1"
_space_group_IT_number       1

loop_
  _space_group_symop_operation_xyz
  'x, y, z'

loop_
  _atom_site_type_symbol
  _atom_site_label
  _atom_site_symmetry_multiplicity
  _atom_site_fract_x
  _atom_site_fract_y
  _atom_site_fract_z
  _atom_site_occupancy
  H   H1        1.0  0.46834490231623266  0.4646714238632306  0.15147716717940019  1.0000
  H   H2        1.0  0.5316550979531188  0.535328576324943  0.8485228323981114  1.0000
  H   H3        1.0  0.30667579028069425  0.4958372852055908  0.21783408076382527  1.0000
  H   H4        1.0  0.693324210087248  0.504162715278864  0.7821659196942853  1.0000
  H   H5        1.0  0.4317598162287558  0.6350558841362883  0.17602961496154096  1.0000
  H   H6        1.0  0.5682401837849912  0.36494411498987983  0.8239703846217662  1.0000
  H   H7        1.0  0.7539734550490168  0.36504009861020964  0.30668094881747904  1.0000
  H   H8        1.0  0.24602654496473028  0.6349599005159586  0.6933190507658281  1.0000
  H   H9        1.0  0.5841596299209108  0.338250743428243  0.22625650630678973  1.0000
  H   H10       1.0  0.41584037034844074  0.6617492567599305  0.7737434932707219  1.0000
  H   H11       1.0  0.7497318193797233  0.44697607686905344  0.19348233535474324  1.0000
  H   H12       1.0  0.25026818088962816  0.5530239233191201  0.8065176642227684  1.0000
  H   H13       1.0  0.9701614337891136  0.6300394875297074  0.532043723838285  1.0000
  H   H14       1.0  0.029838566224633586  0.3699605115964609  0.4679562757450222  1.0000
  H   H15       1.0  0.9463377265055487  0.5369234074252683  0.38928368045822315  1.0000
  H   H16       1.0  0.053662273508198605  0.4630765917008998  0.6107163191250841  1.0000
  H   H17       1.0  0.9315929436864668  0.7928735292642757  0.6350910112185837  1.0000
  H   H18       1.0  0.06840705632728027  0.2071264698618925  0.36490898836472346  1.0000
  H   H19       1.0  0.8527200933825692  0.9335677983598797  0.6410309822448484  1.0000
  H   H20       1.0  0.14727990574124908  0.06643220181900038  0.35896901733338366  1.0000
  H   H21       1.0  0.7700708204784272  0.8030201285718231  0.7124110326018132  1.0000
  H   H22       1.0  0.22992917838978671  0.19697987054505167  0.2875889669822146  1.0000
  H   H23       1.0  0.4329524785969826  0.9090086340802808  0.5969984483472729  1.0000
  H   H24       1.0  0.5670475217709596  0.09099136640417416  0.40300155211083766  1.0000
  H   H25       1.0  0.5885022196936789  0.9154718148570079  0.6816668316316159  1.0000
  H   H26       1.0  0.41149777952873007  0.08452818561815338  0.31833316882721513  1.0000
  H   H27       1.0  0.23995887054675064  0.6545541457505429  0.3442369359087849  1.0000
  H   H28       1.0  0.7600411297226009  0.3454458544376306  0.6557630636687267  1.0000
  H   H29       1.0  0.2778115451266409  0.7805295740234395  0.47313425093634437  1.0000
  H   H30       1.0  0.7221884552413013  0.21947042646101536  0.5268657495217661  1.0000
  H   H31       1.0  0.34043129775440195  0.8271705723313586  0.348315375825817  1.0000
  H   H32       1.0  0.6595687022593452  0.17282942679480967  0.6516846237574903  1.0000
  H   H33       1.0  0.8416227560624622  0.8752134720780715  0.22335588021781505  1.0000
  H   H34       1.0  0.15837724306135606  0.12478652810080842  0.7766441193604171  1.0000
  H   H35       1.0  0.6776414451836834  0.8815614852501783  0.14202507436477893  1.0000
  H   H36       1.0  0.322358555085668  0.11843851493799543  0.8579749252127328  1.0000
  H   H37       1.0  0.7626591417383749  0.7407794093504849  0.10047271032625209  1.0000
  H   H38       1.0  0.2373408573854434  0.2592205908283952  0.8995272892519799  1.0000
  H   H39       1.0  0.6590014111324075  0.11012550562652705  0.0054668085397978185  1.0000
  H   H40       1.0  0.34099858888133955  0.8898744934996412  0.9945331910435095  1.0000
  H   H41       1.0  0.6853618526682588  0.09280998488776018  0.14369787200785733  1.0000
  H   H42       1.0  0.3146381476010926  0.9071900153004132  0.8563021275696542  1.0000
  H   H43       1.0  0.9216977302786825  0.22746023427213338  0.8454416222246905  1.0000
  H   H44       1.0  0.07830226999066889  0.7725397659160401  0.15455837735282105  1.0000
  H   H45       1.0  0.8523333642988041  0.2834454315136879  0.9809327464103246  1.0000
  H   H46       1.0  0.14766663606913805  0.7165545689707669  0.019067254047785972  1.0000
  H   H47       1.0  0.045512820249611556  0.3415099528256996  0.9611603170622594  1.0000
  H   H48       1.0  0.9544871800197398  0.6584900473624739  0.03883968251525237  1.0000
  C   C1        1.0  0.5203662909125418  0.5958245378889064  0.32558419073806383  1.0000
  C   C2        1.0  0.4796337091997961  0.4041754615335431  0.6744158097258423  1.0000
  C   C3        1.0  0.6538724584284541  0.5470005367027306  0.3456470649624407  1.0000
  C   C4        1.0  0.34612754043975985  0.4529994624141441  0.6543529346215871  1.0000
  C   C5        1.0  0.757427049338134  0.6188229027370047  0.44826317402061633  1.0000
  C   C6        1.0  0.24257295093121736  0.38117709745116884  0.5517368255568953  1.0000
  C   C7        1.0  0.7162439205866072  0.7347899439317509  0.5304554371351519  1.0000
  C   C8        1.0  0.28375607978133494  0.2652100565527039  0.4695445633229587  1.0000
  C   C9        1.0  0.576143690903611  0.7793905470568825  0.5157190606334419  1.0000
  C   C10       1.0  0.42385630936574054  0.2206094531312911  0.48428093894406976  1.0000
  C   C11       1.0  0.47648866982841354  0.7054126595513628  0.4120242455669634  1.0000
  C   C12       1.0  0.5235113292954047  0.2945873406275172  0.5879757540112688  1.0000
  C   C13       1.0  0.8969198769567209  0.9334683157865541  0.06929810608119512  1.0000
  C   C14       1.0  0.10308012341122125  0.06653168469790066  0.9307018943769154  1.0000
  C   C15       1.0  0.8657619983931089  0.05691236770416938  0.03910311912297513  1.0000
  C   C16       1.0  0.13423800197483338  0.9430876327802856  0.9608968813351354  1.0000
  C   C17       1.0  0.9732886516974332  0.12125574137745342  0.9690085840568783  1.0000
  C   C18       1.0  0.026711348670509085  0.8787442591070015  0.030991416401232135  1.0000
  N   N1        1.0  0.4289193140338198  0.5435578519259272  0.21200563462557329  1.0000
  N   N2        1.0  0.5710806862355317  0.45644214826224627  0.7879943649519383  1.0000
  N   N3        1.0  0.6898201013765972  0.419919614003087  0.26446291322496085  1.0000
  N   N4        1.0  0.31017989899134496  0.5800803864813678  0.7355370872331497  1.0000
  N   N5        1.0  0.8894332714962674  0.5705963878905194  0.463410150231572  1.0000
  N   N6        1.0  0.11056672851747987  0.42940361123564885  0.5365898493517353  1.0000
  N   N7        1.0  0.8217247018872202  0.818070141144567  0.6343024868410645  1.0000
  N   N8        1.0  0.17827529848072202  0.18192985933988787  0.365697513617046  1.0000
  N   N9        1.0  0.547295952587793  0.8996538516997109  0.5961722215851425  1.0000
  N   N10       1.0  0.4527040476815584  0.10034614848846256  0.4038277779923691  1.0000
  N   N11       1.0  0.3283070949947126  0.745598650034592  0.3934195038475297  1.0000
  N   N12       1.0  0.6716929053732297  0.2544013504498629  0.6065804966105808  1.0000
  N   N13       1.0  0.7888889159849144  0.8563346481413012  0.13778325998556362  1.0000
  N   N14       1.0  0.2111110843830279  0.14366535234315372  0.862216740472547  1.0000
  N   N15       1.0  0.7392510098434557  0.11837374868248245  0.0732836552722089  1.0000
  N   N16       1.0  0.26074899042589567  0.881626251505691  0.9267163443053027  1.0000
  N   N17       1.0  0.9458314358604939  0.2510199072417163  0.9380579693236433  1.0000
  N   N18       1.0  0.05416856440885756  0.7489800929464571  0.06194203025386839  1.0000
  Cl  Cl1       1.0  0.7386928908294774  0.5180793629651965  0.03918832305654999  1.0000
  Cl  Cl2       1.0  0.26130710928286044  0.481920636457253  0.9608116774073561  1.0000
  Cl  Cl3       1.0  0.4385532999600961  0.8440140691925115  0.16519411852232527  1.0000
  Cl  Cl4       1.0  0.561446700407846  0.15598593129194324  0.8348058819357852  1.0000
  Cl  Cl5       1.0  0.18525864936722772  0.8229094839051218  0.6388969668795644  1.0000
  Cl  Cl6       1.0  0.8147413497565904  0.1770905162737582  0.3611030326986676  1.0000
  Cl  Cl7       1.0  0.3840959312660162  0.20354955075581435  0.15635269826333792  1.0000
  Cl  Cl8       1.0  0.6159040691019261  0.7964504497286404  0.8436473021947726  1.0000
  Cl  Cl9       1.0  0.08468139339651246  0.45618132097959424  0.24546986172609575  1.0000
  Cl  Cl10      1.0  0.9153186054717014  0.5438186781372805  0.754530137857932  1.0000
  Cl  Cl11      1.0  0.9656845046433772  0.14699136813414473  0.6711374574642696  1.0000
  Cl  Cl12      1.0  0.034315495625974336  0.8530086320540288  0.3288625421132421  1.0000
