data_image0
_chemical_formula_structural       H24C44N8O8F8S8
_chemical_formula_sum              "H24 C44 N8 O8 F8 S8"
_cell_length_a       7.698675175925787
_cell_length_b       12.952542939545108
_cell_length_c       12.993965281618408
_cell_angle_alpha    63.74037064842282
_cell_angle_beta     82.96954609174327
_cell_angle_gamma    79.3852796960075

_space_group_name_H-M_alt    "P 1"
_space_group_IT_number       1

loop_
  _space_group_symop_operation_xyz
  'x, y, z'

loop_
  _atom_site_type_symbol
  _atom_site_label
  _atom_site_symmetry_multiplicity
  _atom_site_fract_x
  _atom_site_fract_y
  _atom_site_fract_z
  _atom_site_occupancy
  H   H1        1.0  0.8734063815174593  0.1311915625086506  0.3911440979209564  1.0000
  H   H2        1.0  0.126593617715743  0.8688084372959681  0.6088559028956148  1.0000
  H   H3        1.0  0.8711454680634018  0.06513058955489164  0.29694916810688454  1.0000
  H   H4        1.0  0.12885453247361917  0.9348694102565674  0.7030508318405455  1.0000
  H   H5        1.0  0.6153759757548143  0.018210688374266558  0.286096228402785  1.0000
  H   H6        1.0  0.38462402347402125  0.9817893114346287  0.7139037716426407  1.0000
  H   H7        1.0  0.4775997586671184  0.04740346714226763  0.3934662886383845  1.0000
  H   H8        1.0  0.5224002405617171  0.9525965326666277  0.6065337114070412  1.0000
  H   H9        1.0  0.28470313633896255  0.9432678090323183  0.9414987177883037  1.0000
  H   H10       1.0  0.7152968641980585  0.05673219077914093  0.05850128215912625  1.0000
  H   H11       1.0  0.3540611107097549  0.8993919963437292  0.0816519905297715  1.0000
  H   H12       1.0  0.6459388883219396  0.10060800433538654  0.918348009149946  1.0000
  H   H13       1.0  0.9629105152810482  0.8069199377411402  0.09507573536751912  1.0000
  H   H14       1.0  0.037089483947787244  0.19308006206775513  0.9049242646779065  1.0000
  H   H15       1.0  0.030985957455780838  0.885026589287531  0.9498071065964775  1.0000
  H   H16       1.0  0.9690140430812402  0.11497341052392827  0.05019289335095258  1.0000
  H   H17       1.0  0.13543501947116685  0.1458068715265326  0.26827530894371726  1.0000
  H   H18       1.0  0.864564981065854  0.8541931282849267  0.7317246910037128  1.0000
  H   H19       1.0  0.3746028436031329  0.0820032803432672  0.17487255326507808  1.0000
  H   H20       1.0  0.6253971569338881  0.917996719468192  0.825127446682352  1.0000
  H   H21       1.0  0.6289031015199288  0.8815440837693469  0.0232908967039158  1.0000
  H   H22       1.0  0.37109689770890675  0.11845591603954836  0.97670910334151  1.0000
  H   H23       1.0  0.9296027210128321  0.7589957025665017  0.9059666335673553  1.0000
  H   H24       1.0  0.07039727932704773  0.24100429811517785  0.09403336601436668  1.0000
  C   C1        1.0  0.8735653039910357  0.14837387230597332  0.30010505705991614  1.0000
  C   C2        1.0  0.12643469654598538  0.8516261275054858  0.6998949428875141  1.0000
  C   C3        1.0  0.5034017422965396  0.07774104591586734  0.30040776784523715  1.0000
  C   C4        1.0  0.49659825693229603  0.9222589538930278  0.6995922322001886  1.0000
  C   C5        1.0  0.7107007598081906  0.23023276152602445  0.2488902531726258  1.0000
  C   C6        1.0  0.2892992392235038  0.7697672391530913  0.7511097465070915  1.0000
  C   C7        1.0  0.55079963060101  0.19909183729679153  0.24997018043028385  1.0000
  C   C8        1.0  0.449200369936011  0.8009081625146676  0.7500298195171463  1.0000
  C   C9        1.0  0.5000838533844105  0.4216234124598891  0.16102294063100026  1.0000
  C   C10       1.0  0.49991614584442495  0.5783765873490061  0.8389770594144254  1.0000
  C   C11       1.0  0.42177723617222374  0.53813777749922  0.11194178518997638  1.0000
  C   C12       1.0  0.5782227643647971  0.46186222231223933  0.8880582147574537  1.0000
  C   C13       1.0  0.35480917776140486  0.7590331814107584  0.036569558326940935  1.0000
  C   C14       1.0  0.6451908227799832  0.2409668183964243  0.9634304423916348  1.0000
  C   C15       1.0  0.19762842793391522  0.723529044521052  0.041578091265042916  1.0000
  C   C16       1.0  0.8023715726031059  0.27647095529040694  0.9584219086823872  1.0000
  C   C17       1.0  0.38009728925836467  0.8818760473046868  0.005230341095025867  1.0000
  C   C18       1.0  0.6199027112786563  0.11812395250677235  0.9947696588524042  1.0000
  C   C19       1.0  0.01934560219419466  0.7968875489904881  0.01750887081149665  1.0000
  C   C20       1.0  0.9806543983428263  0.20311245082097126  0.9824911291359335  1.0000
  C   C21       1.0  0.8967261605865856  0.8309883435644052  0.4780616144031339  1.0000
  C   C22       1.0  0.10327383975329449  0.16901165711727442  0.5219383851785879  1.0000
  C   C23       1.0  0.02855972671549394  0.857598742285855  0.2964716236410719  1.0000
  C   C24       1.0  0.9714402725133416  0.14240125752304042  0.7035283764043537  1.0000
  C   C25       1.0  0.0064998405925638745  0.7792364659675983  0.41297378174027705  1.0000
  C   C26       1.0  0.9935001599444571  0.22076353384386085  0.5870262182071532  1.0000
  C   C27       1.0  0.09502365031930811  0.6626698791555887  0.4612293372892002  1.0000
  C   C28       1.0  0.9049763500205718  0.3373301215260909  0.5387706622925217  1.0000
  C   C29       1.0  0.22232940197572382  0.6158672260815098  0.3981959827610429  1.0000
  C   C30       1.0  0.7776705972531117  0.3841327737273854  0.6018040172843829  1.0000
  C   C31       1.0  0.06511363909110332  0.5820476184168372  0.5768560073415683  1.0000
  C   C32       1.0  0.9348863614459176  0.41795238139462193  0.4231439926058619  1.0000
  C   C33       1.0  0.3060018050080468  0.5026765220918169  0.44372603830763296  1.0000
  C   C34       1.0  0.6939981953318332  0.49732347858986253  0.5562739612740888  1.0000
  C   C35       1.0  0.14937078169803114  0.4689841785054587  0.622579020624153  1.0000
  C   C36       1.0  0.8506292188389899  0.5310158213060004  0.3774209793232771  1.0000
  C   C37       1.0  0.27386154129651086  0.4214255287396428  0.5590028577150477  1.0000
  C   C38       1.0  0.7261384579366915  0.578574471064976  0.44099714310152366  1.0000
  C   C39       1.0  0.35824355282794584  0.30347318098084564  0.6068613694490208  1.0000
  C   C40       1.0  0.6417564464052566  0.6965268188237729  0.39313863136755045  1.0000
  C   C41       1.0  0.3414905662807301  0.2282831223680647  0.724683734048182  1.0000
  C   C42       1.0  0.6585094342562909  0.7717168774433945  0.275316265899248  1.0000
  C   C43       1.0  0.47826699735556133  0.25377028425798387  0.5438508213970497  1.0000
  C   C44       1.0  0.5217330018732741  0.7462297155509114  0.45614917864837595  1.0000
  N   N1        1.0  0.805801184027339  0.8814334711665153  0.525269536374521  1.0000
  N   N2        1.0  0.19419881650968185  0.11856652864494416  0.4747304635729091  1.0000
  N   N3        1.0  0.03581546982050715  0.9277487870120558  0.20077081237255334  1.0000
  N   N4        1.0  0.9641845294083284  0.07225121279683949  0.7992291876728723  1.0000
  N   N5        1.0  0.33374029786556736  0.16251232943127558  0.8218988375841563  1.0000
  N   N6        1.0  0.6662597024743125  0.8374876712504041  0.1781011619975656  1.0000
  N   N7        1.0  0.5796660829570714  0.20656278100274159  0.49785436302820474  1.0000
  N   N8        1.0  0.42033391757994937  0.7934372188087178  0.5021456369192254  1.0000
  O   O1        1.0  0.024562281346564838  0.20001298844827015  0.23786425720493268  1.0000
  O   O2        1.0  0.9754377176851295  0.7999870122308455  0.7621357424747847  1.0000
  O   O3        1.0  0.3466029129062557  0.07485437396624424  0.2547039027754819  1.0000
  O   O4        1.0  0.6533970876307652  0.925145625845215  0.7452960971719481  1.0000
  O   O5        1.0  0.5539031332663112  0.903381349796617  0.9580964054970557  1.0000
  O   O6        1.0  0.44609686727070974  0.09661865001484234  0.04190359445037437  1.0000
  O   O7        1.0  0.9024525804849385  0.7419138027434612  0.9883552004646988  1.0000
  O   O8        1.0  0.09754742005208242  0.2580861970679982  0.011644799482731191  1.0000
  F   F1        1.0  0.26647073374890673  0.6857997232698252  0.2881848790373932  1.0000
  F   F2        1.0  0.7335292654799288  0.3142002765390702  0.7118151210080325  1.0000
  F   F3        1.0  0.9462931884622969  0.6159622518738765  0.6457513221662409  1.0000
  F   F4        1.0  0.053706812074724095  0.38403774793758266  0.35424867778118935  1.0000
  F   F5        1.0  0.4262309267651692  0.4690148044739536  0.37524006767906626  1.0000
  F   F6        1.0  0.5737690735747109  0.5309851962077261  0.6247599319026557  1.0000
  F   F7        1.0  0.10804755822339868  0.39988331899433316  0.7335869995841015  1.0000
  F   F8        1.0  0.8919524410054368  0.6001166808145622  0.2664130004613244  1.0000
  S   S1        1.0  0.7209213673532793  0.3781287696830227  0.1910720326756536  1.0000
  S   S2        1.0  0.2790786331837416  0.6218712301284365  0.8089279672717765  1.0000
  S   S3        1.0  0.37905347181949256  0.3110387533754448  0.19393103214074367  1.0000
  S   S4        1.0  0.620946527409343  0.6889612464334506  0.806068967904682  1.0000
  S   S5        1.0  0.5385822528653156  0.6517711063101144  0.07610779162600019  1.0000
  S   S6        1.0  0.4614177474745642  0.34822889437156523  0.9238922079557217  1.0000
  S   S7        1.0  0.19946404726548864  0.5762408302459402  0.08486468684317607  1.0000
  S   S8        1.0  0.8005359532758991  0.4237591695612424  0.9151353138753995  1.0000
