data_image0
_chemical_formula_structural       H24C34N8O4S2Br4
_chemical_formula_sum              "H24 C34 N8 O4 S2 Br4"
_cell_length_a       7.6701586393691
_cell_length_b       7.939067887962509
_cell_length_c       14.640686843520824
_cell_angle_alpha    95.36048135084734
_cell_angle_beta     94.0191549567272
_cell_angle_gamma    99.09587960148092

_space_group_name_H-M_alt    "P 1"
_space_group_IT_number       1

loop_
  _space_group_symop_operation_xyz
  'x, y, z'

loop_
  _atom_site_type_symbol
  _atom_site_label
  _atom_site_symmetry_multiplicity
  _atom_site_fract_x
  _atom_site_fract_y
  _atom_site_fract_z
  _atom_site_occupancy
  H   H1        1.0  0.7403583073399717  0.9636659296337747  0.12415378584646287  1.0000
  H   H2        1.0  0.25964169259781966  0.03633407003495378  0.8758462139335063  1.0000
  H   H3        1.0  0.950862204059198  0.059254073893872446  0.09045943375236988  1.0000
  H   H4        1.0  0.04913779587859345  0.9407459257748558  0.9095405660275991  1.0000
  H   H5        1.0  0.804821074762142  0.9106225585104066  0.011510592345904996  1.0000
  H   H6        1.0  0.19517892538868856  0.08937744243554128  0.9884894074425936  1.0000
  H   H7        1.0  0.23087071111765667  0.3102863146256437  0.8630240933969133  1.0000
  H   H8        1.0  0.7691292889203919  0.6897136851633987  0.1369759070715745  1.0000
  H   H9        1.0  0.4554023774160587  0.3983093954752227  0.75667052841893  1.0000
  H   H10       1.0  0.5445976226219896  0.6016906043138196  0.24332947204955777  1.0000
  H   H11       1.0  0.13967018891191998  0.7607290780625782  0.6584033522292959  1.0000
  H   H12       1.0  0.8603298110258714  0.2392709216061502  0.3415966475506731  1.0000
  H   H13       1.0  0.9083877470598447  0.6622156342515947  0.7596034656077704  1.0000
  H   H14       1.0  0.0916122528779467  0.33778436541713375  0.24039653417219872  1.0000
  H   H15       1.0  0.5685960039829416  0.22259704846311076  0.6334045339579422  1.0000
  H   H16       1.0  0.4314039961678889  0.7774029524828371  0.36659546583055636  1.0000
  H   H17       1.0  0.788060406807989  0.32618225594185934  0.5246788366902124  1.0000
  H   H18       1.0  0.2119395931298025  0.673817743726869  0.4753211630897566  1.0000
  H   H19       1.0  0.1768292220656918  0.07517394745302299  0.6614957841367965  1.0000
  H   H20       1.0  0.8231707778720996  0.9248260522157054  0.33850421564317257  1.0000
  H   H21       1.0  0.9550635112601138  0.9712033746469786  0.7684841174403994  1.0000
  H   H22       1.0  0.04493648877793454  0.028796625142063714  0.23151588302808834  1.0000
  H   H23       1.0  0.5641266379664951  0.882742954090999  0.8698972327626024  1.0000
  H   H24       1.0  0.4358733620715534  0.11725704569804338  0.13010276770588533  1.0000
  C   C1        1.0  0.7248601893405678  0.1553900504527322  0.03700632564700497  1.0000
  C   C2        1.0  0.2751398105972236  0.8446099492159963  0.9629936741329641  1.0000
  C   C3        1.0  0.9218606304091213  0.4229590428219009  0.8807804878382005  1.0000
  C   C4        1.0  0.07813936962892715  0.5770409569671415  0.11921951263028725  1.0000
  C   C5        1.0  0.6665985510041255  0.38007030931307156  0.9694375875606989  1.0000
  C   C6        1.0  0.3334014489336659  0.6199296903556568  0.03056241221927012  1.0000
  C   C7        1.0  0.8106646693788158  0.014257946509236504  0.0673264727075327  1.0000
  C   C8        1.0  0.18933533077201484  0.9857420544367115  0.9326735270809658  1.0000
  C   C9        1.0  0.05565739243279104  0.48146873746224333  0.8198086638269049  1.0000
  C   C10       1.0  0.9443426076052572  0.518531262326799  0.18019133664158293  1.0000
  C   C11       1.0  0.2107972671321211  0.4082757871517855  0.8179500128529715  1.0000
  C   C12       1.0  0.7892027328056702  0.5917242125169428  0.18204998692699745  1.0000
  C   C13       1.0  0.3384834414113863  0.45967183372463205  0.7590586904555027  1.0000
  C   C14       1.0  0.6615165585264051  0.5403281659440964  0.24094130932446634  1.0000
  C   C15       1.0  0.31249378338294753  0.5881243894801781  0.7032470229372643  1.0000
  C   C16       1.0  0.6875062165548438  0.41187561018855023  0.29675297684270485  1.0000
  C   C17       1.0  0.15960539008586233  0.662988505677058  0.7035503406875395  1.0000
  C   C18       1.0  0.840394609851929  0.33701149399167035  0.2964496590924295  1.0000
  C   C19       1.0  0.0306405433192304  0.6078253262789518  0.7613015177035746  1.0000
  C   C20       1.0  0.9693594568316002  0.3921746746669961  0.23869848208492406  1.0000
  C   C21       1.0  0.7478988271279807  0.08957733262195801  0.7075604831106178  1.0000
  C   C22       1.0  0.2521011730228498  0.9104226683239898  0.29243951667788065  1.0000
  C   C23       1.0  0.701568807035298  0.19027060306862278  0.6389107724092019  1.0000
  C   C24       1.0  0.29843119321578965  0.809729397997639  0.36108922806781535  1.0000
  C   C25       1.0  0.8234878259478343  0.24760317990034916  0.5778882065075607  1.0000
  C   C26       1.0  0.17651217398995697  0.7523968197683794  0.4221117932724084  1.0000
  C   C27       1.0  0.9924335294266606  0.2034259482066623  0.5865157726053927  1.0000
  C   C28       1.0  0.007566470824426928  0.7965740528595996  0.41348422787162464  1.0000
  C   C29       1.0  0.042635679980380176  0.10434722740887457  0.654483025094772  1.0000
  C   C30       1.0  0.9573643199574112  0.8956527722598538  0.3455169746851972  1.0000
  C   C31       1.0  0.9185472981012106  0.04727751234417642  0.7145158333191662  1.0000
  C   C32       1.0  0.08145270183658072  0.952722487324552  0.2854841664608028  1.0000
  C   C33       1.0  0.6141553607492618  0.03189807888823142  0.7719988461489778  1.0000
  C   C34       1.0  0.3858446392887866  0.9681019209008109  0.22800115431950987  1.0000
  N   N1        1.0  0.5345377387931873  0.33838545466119146  0.020479859244770002  1.0000
  N   N2        1.0  0.46546226124486106  0.6616145451278509  0.9795201412237177  1.0000
  N   N3        1.0  0.5732887342241416  0.19817227531636872  0.06245771275535101  1.0000
  N   N4        1.0  0.4267112658139069  0.8018277244726737  0.9375422877131369  1.0000
  N   N5        1.0  0.7869372902317514  0.26910341535251775  0.9770419626050187  1.0000
  N   N6        1.0  0.21306270980629707  0.7308965844365246  0.022958037863469106  1.0000
  N   N7        1.0  0.9311428823911913  0.2907798553234193  0.9277056578407764  1.0000
  N   N8        1.0  0.06885711764685723  0.709220144465623  0.07229434262771138  1.0000
  O   O1        1.0  0.46916189541374326  0.08151687613702344  0.7723426275637518  1.0000
  O   O2        1.0  0.5308381045240481  0.918483123531705  0.22765737221621724  1.0000
  O   O3        1.0  0.6656964749991285  0.9239120206009579  0.8290595509206696  1.0000
  O   O4        1.0  0.33430352493866283  0.07608797906777061  0.17094044885929943  1.0000
  S   S1        1.0  0.7390525689292419  0.5304941326012214  0.8974412009691884  1.0000
  S   S2        1.0  0.26094743122158864  0.4695058683447265  0.10255879881931014  1.0000
  Br  Br1       1.0  0.4883052012713942  0.6619357553181822  0.6238776798809568  1.0000
  Br  Br2       1.0  0.5116947986663971  0.3380642443505464  0.3761223198990123  1.0000
  Br  Br3       1.0  0.15937534076485876  0.2830437102749685  0.5035805297398757  1.0000
  Br  Br4       1.0  0.8406246591729326  0.71695628939376  0.4964194700400935  1.0000
