data_image0
_chemical_formula_structural       H104B72C24Br8
_chemical_formula_sum              "H104 B72 C24 Br8"
_cell_length_a       18.458427095178823
_cell_length_b       10.374855403956042
_cell_length_c       10.600899688544235
_cell_angle_alpha    90.0
_cell_angle_beta     99.69800135216012
_cell_angle_gamma    90.0

_space_group_name_H-M_alt    "P 1"
_space_group_IT_number       1

loop_
  _space_group_symop_operation_xyz
  'x, y, z'

loop_
  _atom_site_type_symbol
  _atom_site_label
  _atom_site_symmetry_multiplicity
  _atom_site_fract_x
  _atom_site_fract_y
  _atom_site_fract_z
  _atom_site_occupancy
  H   H1        1.0  0.542946372772197  0.9220355568861605  0.5455590149416012  1.0000
  H   H2        1.0  0.4570536271654935  0.9220355568861605  0.9544409844960179  1.0000
  H   H3        1.0  0.04294637265376673  0.4220355570768157  0.545559015691365  1.0000
  H   H4        1.0  0.957053627374913  0.4220355570768157  0.954440984703242  1.0000
  H   H5        1.0  0.45705362732587634  0.07796444369639788  0.45444098482162765  1.0000
  H   H6        1.0  0.5429463729325799  0.07796444369639788  0.045559015267211005  1.0000
  H   H7        1.0  0.9570536275352957  0.5779644435057426  0.4544409850288519  1.0000
  H   H8        1.0  0.042946372723160396  0.5779644435057426  0.04555901505998677  1.0000
  H   H9        1.0  0.6464914547909123  0.9106430626876456  0.5075288990478101  1.0000
  H   H10       1.0  0.35350854523776737  0.9106430626876456  0.992471101346797  1.0000
  H   H11       1.0  0.14649145458149287  0.4106430628783008  0.5075288988405858  1.0000
  H   H12       1.0  0.8535085453561978  0.4106430628783008  0.9924711005970331  1.0000
  H   H13       1.0  0.3535085453071611  0.0893569369310439  0.4924711007154187  1.0000
  H   H14       1.0  0.6464914549512951  0.0893569369310439  0.007528899373419915  1.0000
  H   H15       1.0  0.8535085455165805  0.5893569367403887  0.49247110092264296  1.0000
  H   H16       1.0  0.14649145474187564  0.5893569367403887  0.007528899166195666  1.0000
  H   H17       1.0  0.5853479630649177  0.7593814123901771  0.4777101509317829  1.0000
  H   H18       1.0  0.4146520371935386  0.7593814123901771  0.022289849157055817  1.0000
  H   H19       1.0  0.08534796285549812  0.2593814125808323  0.4777101507245586  1.0000
  H   H20       1.0  0.9146520368609298  0.2593814125808323  0.022289849361461778  1.0000
  H   H21       1.0  0.4146520371241449  0.2406185872285124  0.5222898497884341  1.0000
  H   H22       1.0  0.5853479629045348  0.2406185872285124  0.977710150606173  1.0000
  H   H23       1.0  0.9146520372425754  0.7406185870378572  0.5222898490386703  1.0000
  H   H24       1.0  0.08534796269511537  0.7406185870378572  0.9777101503989488  1.0000
  H   H25       1.0  0.6751332936320502  0.5545530926441794  0.7501008291132861  1.0000
  H   H26       1.0  0.3248667063966296  0.5545530926441794  0.7498991712813209  1.0000
  H   H27       1.0  0.1751332934226307  0.05455309283483466  0.7501008289060619  1.0000
  H   H28       1.0  0.8248667066060491  0.05455309283483466  0.7498991714885451  1.0000
  H   H29       1.0  0.32486670655701233  0.4454469069745101  0.24989917160693073  1.0000
  H   H30       1.0  0.6751332937014438  0.4454469069745101  0.25010082848190796  1.0000
  H   H31       1.0  0.8248667066754427  0.9454469077477238  0.2498991708571669  1.0000
  H   H32       1.0  0.17513329358301344  0.9454469077477238  0.25010082923167176  1.0000
  H   H33       1.0  0.5407471408649648  0.6291049779364862  0.5815302311934494  1.0000
  H   H34       1.0  0.459252859163715  0.6291049779364862  0.9184697692011577  1.0000
  H   H35       1.0  0.04074714065554531  0.12910497812714145  0.5815302309862251  1.0000
  H   H36       1.0  0.9592528592821452  0.12910497812714145  0.9184697684513938  1.0000
  H   H37       1.0  0.45925285923310866  0.3708950216822033  0.4184697685697794  1.0000
  H   H38       1.0  0.5407471410253475  0.3708950216822033  0.08153023151905921  1.0000
  H   H39       1.0  0.9592528589004999  0.870895021491548  0.4184697687741854  1.0000
  H   H40       1.0  0.04074714081592807  0.870895021491548  0.08153023131183497  1.0000
  H   H41       1.0  0.6643366231251893  0.479860945156079  0.4865604044072702  1.0000
  H   H42       1.0  0.3356633765912385  0.479860945156079  0.013439595678750063  1.0000
  H   H43       1.0  0.16433662291576992  0.9798609459292926  0.48656040420004604  1.0000
  H   H44       1.0  0.8356633768006579  0.9798609459292926  0.01343959588597431  1.0000
  H   H45       1.0  0.33566337697288395  0.5201390544626106  0.5134395953559584  1.0000
  H   H46       1.0  0.6643366230557958  0.5201390544626106  0.9865604050386486  1.0000
  H   H47       1.0  0.8356633766402751  0.020139054653265726  0.5134395955603644  1.0000
  H   H48       1.0  0.16433662338840455  0.020139054653265726  0.9865604048342426  1.0000
  H   H49       1.0  0.6647582403152782  0.6566893643069097  0.4104127918892953  1.0000
  H   H50       1.0  0.33524175940114964  0.6566893643069097  0.08958720819672505  1.0000
  H   H51       1.0  0.16475824064788708  0.156689364497565  0.41041279168488926  1.0000
  H   H52       1.0  0.835241759610569  0.156689364497565  0.0895872084039493  1.0000
  H   H53       1.0  0.3352417592407669  0.3433106353117798  0.5895872078711152  1.0000
  H   H54       1.0  0.6647582406969238  0.3433106353117798  0.9104127915665038  1.0000
  H   H55       1.0  0.8352417594501864  0.8433106360849933  0.5895872080783394  1.0000
  H   H56       1.0  0.16475824057849342  0.8433106360849933  0.9104127923162675  1.0000
  H   H57       1.0  0.8100809437699323  0.5830815856665632  0.6470420536256741  1.0000
  H   H58       1.0  0.1899190561677582  0.5830815856665632  0.8529579458119446  1.0000
  H   H59       1.0  0.3100809436515021  0.08308158585721839  0.6470420543754379  1.0000
  H   H60       1.0  0.6899190563771777  0.08308158585721839  0.852957946019169  1.0000
  H   H61       1.0  0.18991905632814093  0.41691841491599524  0.3529579461375546  1.0000
  H   H62       1.0  0.810080943388287  0.41691841491599524  0.14704205394846576  1.0000
  H   H63       1.0  0.6899190565375605  0.91691841472534  0.35295794634477884  1.0000
  H   H64       1.0  0.31008094372089573  0.91691841472534  0.1470420537440598  1.0000
  H   H65       1.0  0.8013465292650446  0.48406888524778896  0.34902162083655236  1.0000
  H   H66       1.0  0.19865347045138324  0.48406888524778896  0.15097837924946797  1.0000
  H   H67       1.0  0.30134652959765346  0.9840688860210026  0.3490216206321464  1.0000
  H   H68       1.0  0.6986534706608026  0.9840688860210026  0.15097837945669224  1.0000
  H   H69       1.0  0.19865347083302876  0.5159311143709006  0.6509783789266764  1.0000
  H   H70       1.0  0.801346529195651  0.5159311143709006  0.8490216214679306  1.0000
  H   H71       1.0  0.69865347050042  0.015931114561555805  0.6509783791310824  1.0000
  H   H72       1.0  0.3013465295282598  0.015931114561555805  0.8490216212635247  1.0000
  H   H73       1.0  0.7218902868426618  0.6949058728327842  0.20168676012279158  1.0000
  H   H74       1.0  0.27810971341579444  0.6949058728327842  0.2983132399660471  1.0000
  H   H75       1.0  0.2218902866332423  0.19490587205957052  0.20168675991556734  1.0000
  H   H76       1.0  0.7781097130831857  0.19490587205957052  0.298313240170453  1.0000
  H   H77       1.0  0.2781097132554116  0.30509412774977424  0.7983132396404371  1.0000
  H   H78       1.0  0.721890286773268  0.30509412774977424  0.7016867607541698  1.0000
  H   H79       1.0  0.7781097134648312  0.805094127559119  0.7983132398476614  1.0000
  H   H80       1.0  0.22189028656384863  0.805094127559119  0.7016867605469456  1.0000
  H   H81       1.0  0.5000000000837336  0.4893968795038749  0.2499999995659253  1.0000
  H   H82       1.0  0.9999999999653032  0.9893968793132196  0.2500000003156891  1.0000
  H   H83       1.0  0.5000000000143399  0.5106031201148146  0.7500000001973035  1.0000
  H   H84       1.0  0.9999999998049204  0.010603120305469858  0.7499999999900793  1.0000
  H   H85       1.0  0.4059862110433718  0.6096807293900287  0.3462200186269351  1.0000
  H   H86       1.0  0.5940137886730561  0.6096807293900287  0.15377998145908528  1.0000
  H   H87       1.0  0.9059862112527913  0.10968072958068395  0.34622001883415937  1.0000
  H   H88       1.0  0.09401378846363663  0.10968072958068395  0.15377998125186101  1.0000
  H   H89       1.0  0.5940137886036625  0.3903192702286608  0.6537799820904635  1.0000
  H   H90       1.0  0.4059862114250173  0.3903192702286608  0.8462200183041436  1.0000
  H   H91       1.0  0.09401378893627126  0.8903192700380056  0.6537799818860576  1.0000
  H   H92       1.0  0.9059862110924085  0.8903192700380056  0.8462200185085496  1.0000
  H   H93       1.0  0.4046394378146877  0.8489910448912239  0.3426566570989961  1.0000
  H   H94       1.0  0.5953605624437683  0.8489910448912239  0.1573433429898425  1.0000
  H   H95       1.0  0.904639437482079  0.3489910450818791  0.3426566573034021  1.0000
  H   H96       1.0  0.095360562234349  0.3489910450818791  0.15734334278261827  1.0000
  H   H97       1.0  0.5953605623743748  0.15100895472746564  0.6573433436212207  1.0000
  H   H98       1.0  0.404639437654305  0.15100895472746564  0.8426566567733863  1.0000
  H   H99       1.0  0.09536056270698362  0.6510089555006792  0.6573433434168148  1.0000
  H   H100      1.0  0.9046394373216962  0.6510089555006792  0.8426566569777921  1.0000
  H   H101      1.0  0.5000000000837336  0.969298739928984  0.2499999995659253  1.0000
  H   H102      1.0  0.9999999999653032  0.4692987401196391  0.2500000003156891  1.0000
  H   H103      1.0  0.5000000000143399  0.030701259689705607  0.7500000001973035  1.0000
  H   H104      1.0  0.9999999998049204  0.5307012604629192  0.7499999999900793  1.0000
  B   B1        1.0  0.6402029322962597  0.7897080470997102  0.704552150367915  1.0000
  B   B2        1.0  0.3597970677324201  0.7897080470997102  0.7954478500266918  1.0000
  B   B3        1.0  0.14020293208684015  0.2897080472903654  0.7045521501606907  1.0000
  B   B4        1.0  0.8597970679418396  0.2897080472903654  0.7954478502339162  1.0000
  B   B5        1.0  0.35979706789280286  0.21029195251897934  0.2954478503523018  1.0000
  B   B6        1.0  0.640202931823625  0.21029195251897934  0.20455214973371857  1.0000
  B   B7        1.0  0.8597970680112333  0.7102919523283241  0.295447849602538  1.0000
  B   B8        1.0  0.14020293224722288  0.7102919523283241  0.20455215048630063  1.0000
  B   B9        1.0  0.59584372992878  0.8552385122029403  0.5638404842022527  1.0000
  B   B10       1.0  0.4041562700998997  0.8552385122029403  0.9361595161923544  1.0000
  B   B11       1.0  0.09584372971936057  0.3552385114297267  0.5638404839950285  1.0000
  B   B12       1.0  0.90415627021833  0.3552385114297267  0.9361595154425904  1.0000
  B   B13       1.0  0.4041562701692934  0.14476148837961805  0.4361595155609761  1.0000
  B   B14       1.0  0.5958437295471345  0.14476148837961805  0.0638404845250443  1.0000
  B   B15       1.0  0.9041562703787128  0.6447614881889628  0.4361595157682004  1.0000
  B   B16       1.0  0.09584372987974334  0.6447614881889628  0.06384048432063834  1.0000
  B   B17       1.0  0.6796267297103061  0.6392171458573996  0.67605342117538  1.0000
  B   B18       1.0  0.3203732703183736  0.6392171458573996  0.823946579219227  1.0000
  B   B19       1.0  0.17962673004291496  0.1392171460480549  0.6760534209709741  1.0000
  B   B20       1.0  0.8203732698947757  0.1392171460480549  0.8239465784666449  1.0000
  B   B21       1.0  0.3203732703877673  0.3607828537612898  0.32394657858784875  1.0000
  B   B22       1.0  0.679626729870689  0.3607828537612898  0.17605342150098988  1.0000
  B   B23       1.0  0.8203732700551585  0.8607828535706347  0.32394657879225475  1.0000
  B   B24       1.0  0.17962672966126944  0.8607828535706347  0.17605342129376564  1.0000
  B   B25       1.0  0.5971569231570037  0.6838050039034606  0.5797822927459769  1.0000
  B   B26       1.0  0.4028430768716759  0.6838050039034606  0.92021770764863  1.0000
  B   B27       1.0  0.09715692294758438  0.18380500409411585  0.5797822925387528  1.0000
  B   B28       1.0  0.9028430770810955  0.18380500409411585  0.9202177078558541  1.0000
  B   B29       1.0  0.4028430770320586  0.3161949957152289  0.42021770797423974  1.0000
  B   B30       1.0  0.5971569226843693  0.3161949957152289  0.07978229211178053  1.0000
  B   B31       1.0  0.9028430771504891  0.8161949955245736  0.420217707224476  1.0000
  B   B32       1.0  0.09715692310796711  0.8161949955245736  0.07978229286436263  1.0000
  B   B33       1.0  0.6746345851636126  0.5895345449988418  0.5171577574817944  1.0000
  B   B34       1.0  0.3253654148650671  0.5895345449988418  0.9828422429128126  1.0000
  B   B35       1.0  0.17463458495419315  0.08953454518949706  0.51715775727457  1.0000
  B   B36       1.0  0.8253654150744866  0.08953454518949706  0.9828422431200369  1.0000
  B   B37       1.0  0.32536541493446075  0.4104654546198476  0.48284224228143446  1.0000
  B   B38       1.0  0.6746345852330062  0.4104654546198476  0.017157756850416105  1.0000
  B   B39       1.0  0.825365414601852  0.9104654553930613  0.48284224248584046  1.0000
  B   B40       1.0  0.17463458511457597  0.9104654553930613  0.017157757600179912  1.0000
  B   B41       1.0  0.7588015347829103  0.6489502241576038  0.6066456917033177  1.0000
  B   B42       1.0  0.24119846524576938  0.6489502241576038  0.8933543086912893  1.0000
  B   B43       1.0  0.25880153457349087  0.14895022434825902  0.6066456914960935  1.0000
  B   B44       1.0  0.7411984654551889  0.14895022434825902  0.8933543088985134  1.0000
  B   B45       1.0  0.24119846540615214  0.35104977546108573  0.3933543090168991  1.0000
  B   B46       1.0  0.7588015348523041  0.35104977546108573  0.10664569107193954  1.0000
  B   B47       1.0  0.7411984655245825  0.8510497752704305  0.39335430826713536  1.0000
  B   B48       1.0  0.2588015346428846  0.8510497752704305  0.1066456908647153  1.0000
  B   B49       1.0  0.7370316625129706  0.686003296709672  0.44334532826377  1.0000
  B   B50       1.0  0.26296833774548545  0.686003296709672  0.05665467182506867  1.0000
  B   B51       1.0  0.2370316623945403  0.18600329690032724  0.4433453290135338  1.0000
  B   B52       1.0  0.7629683378639159  0.18600329690032724  0.05665467107530486  1.0000
  B   B53       1.0  0.26296833758510274  0.3139967029090175  0.5566546714994588  1.0000
  B   B54       1.0  0.737031662443577  0.3139967029090175  0.9433453288951483  1.0000
  B   B55       1.0  0.7629683377945222  0.813996703682231  0.556654671706683  1.0000
  B   B56       1.0  0.23703166223415753  0.813996703682231  0.943345328687924  1.0000
  B   B57       1.0  0.8136197615646835  0.5938523420433114  0.3759365188972656  1.0000
  B   B58       1.0  0.18638023860278352  0.5938523420433114  0.12406348023458501  1.0000
  B   B59       1.0  0.3136197614462532  0.09385234127009773  0.3759365196470294  1.0000
  B   B60       1.0  0.6863802388122029  0.09385234127009773  0.12406348044180923  1.0000
  B   B61       1.0  0.18638023853338984  0.40614765853924706  0.6240634808659632  1.0000
  B   B62       1.0  0.8136197614952899  0.40614765853924706  0.8759365195286438  1.0000
  B   B63       1.0  0.6863802387428093  0.9061476583485918  0.6240634810731875  1.0000
  B   B64       1.0  0.3136197612858704  0.9061476583485918  0.8759365193214196  1.0000
  B   B65       1.0  0.7634085725090366  0.7216084425760081  0.2965530432625653  1.0000
  B   B66       1.0  0.2365914277494196  0.7216084425760081  0.2034469568262733  1.0000
  B   B67       1.0  0.2634085722996171  0.22160844276666333  0.29655304305534114  1.0000
  B   B68       1.0  0.7365914274168107  0.22160844276666333  0.20344695703067925  1.0000
  B   B69       1.0  0.23659142768002592  0.2783915570426814  0.7034469574576516  1.0000
  B   B70       1.0  0.7634085723486538  0.2783915570426814  0.7965530429369554  1.0000
  B   B71       1.0  0.7365914277984563  0.7783915568520261  0.7034469567078877  1.0000
  B   B72       1.0  0.26340857213923435  0.7783915568520261  0.7965530427297313  1.0000
  C   C1        1.0  0.5000000000837336  0.5944288908015446  0.2499999995659253  1.0000
  C   C2        1.0  0.9999999999653032  0.0944288909921998  0.2500000003156891  1.0000
  C   C3        1.0  0.5000000000143399  0.405571108817145  0.7500000001973035  1.0000
  C   C4        1.0  0.9999999998049204  0.9055711095903586  0.7499999999900793  1.0000
  C   C5        1.0  0.446877232090136  0.6619155316016679  0.30316387852622495  1.0000
  C   C6        1.0  0.5531227681683202  0.6619155316016679  0.19683612156261365  1.0000
  C   C7        1.0  0.9468772316665383  0.16191553179232315  0.30316387777364284  1.0000
  C   C8        1.0  0.05312276804988977  0.16191553179232315  0.19683612231237751  1.0000
  C   C9        1.0  0.5531227680989265  0.33808446801702163  0.6968361221939919  1.0000
  C   C10       1.0  0.44687723192975326  0.33808446801702163  0.8031638782006152  1.0000
  C   C11       1.0  0.0531227684315353  0.8380844678263664  0.696836121989586  1.0000
  C   C12       1.0  0.9468772315971444  0.8380844678263664  0.803163878405021  1.0000
  C   C13       1.0  0.4464294322246609  0.7966736391187029  0.3019621846872894  1.0000
  C   C14       1.0  0.5535705674917669  0.7966736391187029  0.19803781539873097  1.0000
  C   C15       1.0  0.9464294324340804  0.2966736393093582  0.30196218489451365  1.0000
  C   C16       1.0  0.05357056728234748  0.2966736393093582  0.1980378151915067  1.0000
  C   C17       1.0  0.5535705673313842  0.20332636146385544  0.6980378150731211  1.0000
  C   C18       1.0  0.44642943260630646  0.20332636146385544  0.8019621843644978  1.0000
  C   C19       1.0  0.053570567663993  0.7033263612732003  0.6980378148687152  1.0000
  C   C20       1.0  0.9464294322736978  0.7033263612732003  0.8019621845689039  1.0000
  C   C21       1.0  0.5000000000837336  0.8642926827279754  0.2499999995659253  1.0000
  C   C22       1.0  0.9999999999653032  0.3642926819547618  0.2500000003156891  1.0000
  C   C23       1.0  0.5000000000143399  0.13570731785458293  0.7500000001973035  1.0000
  C   C24       1.0  0.9999999998049204  0.6357073176639276  0.7499999999900793  1.0000
  Br  Br1       1.0  0.6045539865040062  0.8155317024248573  0.8680363599392034  1.0000
  Br  Br2       1.0  0.39544601343368446  0.8155317024248573  0.6319636394984155  1.0000
  Br  Br3       1.0  0.104553986836615  0.31553170261551244  0.8680363597347973  1.0000
  Br  Br4       1.0  0.8954460131010757  0.31553170261551244  0.6319636397028215  1.0000
  Br  Br5       1.0  0.39544601305203897  0.18446829815770116  0.13196363982120712  1.0000
  Br  Br6       1.0  0.604553986664389  0.18446829815770116  0.3680363602648132  1.0000
  Br  Br7       1.0  0.8954460132614583  0.6844682979670459  0.13196364002843136  1.0000
  Br  Br8       1.0  0.10455398699699776  0.6844682979670459  0.3680363600604073  1.0000
