data_image0
_chemical_formula_structural       H20C20N2O2Br2
_chemical_formula_sum              "H20 C20 N2 O2 Br2"
_cell_length_a       6.923236539075854
_cell_length_b       8.694891485705872
_cell_length_c       9.012249788433667
_cell_angle_alpha    111.21859946169158
_cell_angle_beta     104.00038063793727
_cell_angle_gamma    95.98808213402313

_space_group_name_H-M_alt    "P 1"
_space_group_IT_number       1

loop_
  _space_group_symop_operation_xyz
  'x, y, z'

loop_
  _atom_site_type_symbol
  _atom_site_label
  _atom_site_symmetry_multiplicity
  _atom_site_fract_x
  _atom_site_fract_y
  _atom_site_fract_z
  _atom_site_occupancy
  H   H1        1.0  0.3188879537394273  0.7083024775189407  0.225544162682973  1.0000
  H   H2        1.0  0.6811120468883392  0.2916975230293942  0.7744558377221764  1.0000
  H   H3        1.0  0.1224758857707859  0.4882759126263729  0.8783726169069319  1.0000
  H   H4        1.0  0.8775241148569805  0.511724087921962  0.12162738349821764  1.0000
  H   H5        1.0  0.13337865310813887  0.5335362503952784  0.6220716503290113  1.0000
  H   H6        1.0  0.8666213473852342  0.46646374899555176  0.37792835007320685  1.0000
  H   H7        1.0  0.2624388405736363  0.1435502267085481  0.8140297096037908  1.0000
  H   H8        1.0  0.7375611599197367  0.8564497726822821  0.1859702907984273  1.0000
  H   H9        1.0  0.3463965873960744  0.37386560932154356  0.09431680886772914  1.0000
  H   H10       1.0  0.6536034132316919  0.6261343912267914  0.9056831915374203  1.0000
  H   H11       1.0  0.3560981696900147  0.30838898517021057  0.3430392801709971  1.0000
  H   H12       1.0  0.6439018309377517  0.6916110153781244  0.6569607202341524  1.0000
  H   H13       1.0  0.279547160273251  0.013855712529350746  0.31348815320279816  1.0000
  H   H14       1.0  0.7204528388879792  0.9861442879803172  0.6865118471425646  1.0000
  H   H15       1.0  0.022593443634713006  0.8596384275547345  0.5393508604083319  1.0000
  H   H16       1.0  0.9774065568586602  0.14036157183609554  0.4606491399938862  1.0000
  H   H17       1.0  0.18909318652341295  0.719768921510376  0.4888940396914828  1.0000
  H   H18       1.0  0.8109068135805216  0.28023107737793085  0.5111059594637127  1.0000
  H   H19       1.0  0.2887723252893037  0.9402104024187323  0.606223088340409  1.0000
  H   H20       1.0  0.7112276752040696  0.05978959697209788  0.3937769120618091  1.0000
  C   C1        1.0  0.15400851332302118  0.6135242551756058  0.8788018673366524  1.0000
  C   C2        1.0  0.8459914871703518  0.3864757442152243  0.12119813306556565  1.0000
  C   C3        1.0  0.15397647903871245  0.6428268622291095  0.7368143118947261  1.0000
  C   C4        1.0  0.8460235195986857  0.35717313662053013  0.26318568720068264  1.0000
  C   C5        1.0  0.18452649018711292  0.8053906148002951  0.742295163267682  1.0000
  C   C6        1.0  0.8154735089741172  0.19460938570937264  0.2577048370776808  1.0000
  C   C7        1.0  0.26491564830188363  0.11372645585572885  0.9219742727174013  1.0000
  C   C8        1.0  0.7350843519364442  0.8862735441900828  0.07802572644072564  1.0000
  C   C9        1.0  0.3107329434112654  0.24250849689964485  0.07806047957946728  1.0000
  C   C10       1.0  0.6892670557499647  0.7574915036100229  0.9219395207658955  1.0000
  C   C11       1.0  0.3167375076376708  0.2064430484436233  0.21936558880315912  1.0000
  C   C12       1.0  0.6832624928557025  0.7935569509472069  0.7806344115990591  1.0000
  C   C13       1.0  0.27503238771033517  0.041588742041386025  0.20436500034073743  1.0000
  C   C14       1.0  0.7249676113165018  0.9584112573107769  0.7956350000016941  1.0000
  C   C15       1.0  0.23011020961084683  0.9096928714194592  0.04582826630056391  1.0000
  C   C16       1.0  0.7698897910169195  0.09030712912887562  0.9541717341045854  1.0000
  C   C17       1.0  0.22553829012738183  0.9426460563615042  0.900603384299256  1.0000
  C   C18       1.0  0.7744617105003845  0.057353944186830694  0.09939661610589341  1.0000
  C   C19       1.0  0.17237365277751657  0.8329655156072738  0.5864801161258136  1.0000
  C   C20       1.0  0.8276263477158565  0.16703448378355626  0.4135198842764047  1.0000
  N   N1        1.0  0.1880936226148755  0.7429450667776047  0.025159577754763993  1.0000
  N   N2        1.0  0.8119063760225227  0.2570549320720349  0.9748404213406449  1.0000
  O   O1        1.0  0.17094742561221815  0.7081109550892376  0.1589270500371311  1.0000
  O   O2        1.0  0.8290525750155482  0.2918890454590974  0.8410729503680183  1.0000
  Br  Br1       1.0  0.5887281252345439  0.6965932644857874  0.34341433689743994  1.0000
  Br  Br2       1.0  0.41127187539322246  0.30340673606254753  0.6565856635077095  1.0000
