data_image0
_chemical_formula_structural       H48C64N16O20
_chemical_formula_sum              "H48 C64 N16 O20"
_cell_length_a       21.607556201826537
_cell_length_b       6.611587682478321
_cell_length_c       10.35452818676454
_cell_angle_alpha    90.0
_cell_angle_beta     98.65519529785463
_cell_angle_gamma    90.0

_space_group_name_H-M_alt    "P 1"
_space_group_IT_number       1

loop_
  _space_group_symop_operation_xyz
  'x, y, z'

loop_
  _atom_site_type_symbol
  _atom_site_label
  _atom_site_symmetry_multiplicity
  _atom_site_fract_x
  _atom_site_fract_y
  _atom_site_fract_z
  _atom_site_occupancy
  H   H1        1.0  0.42633219152360535  0.05448905275123851  0.43755523495161947  1.0000
  H   H2        1.0  0.9263321912271847  0.554489052563816  0.4375552347179384  1.0000
  H   H3        1.0  0.5736678086098647  0.05448905275123851  0.062444765085333094  1.0000
  H   H4        1.0  0.07366780890628519  0.554489052563816  0.06244476531901422  1.0000
  H   H5        1.0  0.5736678088749587  0.9455109468739166  0.5624447644649909  1.0000
  H   H6        1.0  0.0736678087032973  0.445510947061339  0.5624447645375165  1.0000
  H   H7        1.0  0.4263321913137528  0.9455109468739166  0.9375552351336232  1.0000
  H   H8        1.0  0.926332191485414  0.445510947061339  0.9375552350610975  1.0000
  H   H9        1.0  0.4333736339464141  0.6508267721236728  0.6108548246919678  1.0000
  H   H10       1.0  0.9333736341112108  0.15082677231109531  0.6108548255829438  1.0000
  H   H11       1.0  0.5666263657742154  0.6508267721236728  0.8891451747454906  1.0000
  H   H12       1.0  0.06662636607063602  0.15082677231109531  0.8891451749791718  1.0000
  H   H13       1.0  0.566626365984068  0.3491732275014822  0.38914517456348696  1.0000
  H   H14       1.0  0.06662636581240675  0.8491732273140598  0.38914517463601256  1.0000
  H   H15       1.0  0.433373634149402  0.3491732275014822  0.11085482547346559  1.0000
  H   H16       1.0  0.9333736338529814  0.8491732273140598  0.11085482523978446  1.0000
  H   H17       1.0  0.3622912848021285  0.7679843849694947  0.4099271538772078  1.0000
  H   H18       1.0  0.862291284505708  0.26798438515691725  0.4099271536435266  1.0000
  H   H19       1.0  0.6377087153313414  0.7679843849694947  0.09007284615974478  1.0000
  H   H20       1.0  0.13770871562776205  0.26798438515691725  0.09007284639342594  1.0000
  H   H21       1.0  0.6377087155895708  0.23201561465566026  0.5900728465029041  1.0000
  H   H22       1.0  0.1377087154247742  0.7320156144682378  0.5900728456119283  1.0000
  H   H23       1.0  0.36229128459227594  0.23201561465566026  0.9099271540592114  1.0000
  H   H24       1.0  0.8622912847639372  0.7320156144682378  0.909927153986686  1.0000
  H   H25       1.0  0.3285847254971219  0.5224135239336781  0.2324877501692125  1.0000
  H   H26       1.0  0.8285847256687833  0.022413524121100682  0.232487750096687  1.0000
  H   H27       1.0  0.6714152746363481  0.5224135239336781  0.2675122498677401  1.0000
  H   H28       1.0  0.17141527446468677  0.022413524121100682  0.2675122499402657  1.0000
  H   H29       1.0  0.6714152744264955  0.47758647569147683  0.7675122500497438  1.0000
  H   H30       1.0  0.17141527472291607  0.9775864755040543  0.767512250283425  1.0000
  H   H31       1.0  0.32858472528726934  0.47758647569147683  0.7324877503512162  1.0000
  H   H32       1.0  0.8285847254589308  0.9775864755040543  0.7324877502786906  1.0000
  H   H33       1.0  0.6527311843508531  0.1511730552479559  0.2949533279918621  1.0000
  H   H34       1.0  0.15273118417919174  0.6511730550605334  0.2949533280643876  1.0000
  H   H35       1.0  0.347268815782617  0.1511730552479559  0.20504667204509056  1.0000
  H   H36       1.0  0.8472688154861966  0.6511730550605334  0.20504667181140948  1.0000
  H   H37       1.0  0.3472688155727644  0.8488269458896951  0.7050466722270943  1.0000
  H   H38       1.0  0.8472688157444256  0.3488269460771176  0.7050466721545686  1.0000
  H   H39       1.0  0.6527311846090823  0.8488269458896951  0.7949533283350214  1.0000
  H   H40       1.0  0.15273118444428574  0.3488269460771176  0.7949533274440455  1.0000
  H   H41       1.0  0.7289595416989718  0.9201144614813096  0.5868577973471047  1.0000
  H   H42       1.0  0.22895954153417528  0.4201144616687322  0.5868577964561289  1.0000
  H   H43       1.0  0.27104045848287484  0.9201144614813096  0.9131422032150108  1.0000
  H   H44       1.0  0.7710404581864543  0.4201144616687322  0.9131422029813296  1.0000
  H   H45       1.0  0.27104045822464556  0.07988553814384536  0.4131422028718515  1.0000
  H   H46       1.0  0.7710404583963069  0.5798855379564228  0.4131422027993259  1.0000
  H   H47       1.0  0.7289595414407426  0.07988553814384536  0.08685779700394552  1.0000
  H   H48       1.0  0.22895954173716315  0.5798855379564228  0.0868577972376267  1.0000
  C   C1        1.0  0.4131190253292529  0.21339229512738542  0.4341401990204153  1.0000
  C   C2        1.0  0.9131190255009142  0.7133922949399629  0.4341401989478898  1.0000
  C   C3        1.0  0.5868809743361352  0.21339229512738542  0.06585980085538165  1.0000
  C   C4        1.0  0.08688097463255581  0.7133922949399629  0.06585980108906281  1.0000
  C   C5        1.0  0.5868809746012292  0.7866077044977695  0.5658598002350395  1.0000
  C   C6        1.0  0.08688097442956794  0.2866077046851921  0.5658598003075651  1.0000
  C   C7        1.0  0.4131190255874822  0.7866077044977695  0.9341401993635747  1.0000
  C   C8        1.0  0.9131190252910617  0.2866077046851921  0.9341401991298933  1.0000
  C   C9        1.0  0.43410723358441217  0.34096971079644933  0.5401239243516373  1.0000
  C   C10       1.0  0.9341072332811269  0.8409697106090268  0.5401239250814576  1.0000
  C   C11       1.0  0.5658927666042992  0.34096971079644933  0.9598760752469768  1.0000
  C   C12       1.0  0.06589276643263793  0.8409697106090268  0.9598760753195025  1.0000
  C   C13       1.0  0.5658927668141519  0.6590302888287055  0.4598760750649732  1.0000
  C   C14       1.0  0.06589276664249052  0.15903028901612812  0.4598760751374988  1.0000
  C   C15       1.0  0.4341072333193182  0.6590302888287055  0.0401239249719794  1.0000
  C   C16       1.0  0.9341072334909796  0.15903028901612812  0.04012392489945385  1.0000
  C   C17       1.0  0.4174538967911447  0.5463307852019618  0.5312691934742766  1.0000
  C   C18       1.0  0.9174538964947241  0.04633078538938434  0.5312691932405955  1.0000
  C   C19       1.0  0.5825461033975666  0.5463307852019618  0.9687308061243374  1.0000
  C   C20       1.0  0.08254610322590542  0.04633078538938434  0.9687308061968631  1.0000
  C   C21       1.0  0.5825461036005546  0.4536692144231932  0.46873080690583524  1.0000
  C   C22       1.0  0.08254610342889329  0.9536692157482667  0.4687308069783608  1.0000
  C   C23       1.0  0.4174538965329154  0.4536692144231932  0.03126919313111731  1.0000
  C   C24       1.0  0.917453896697712  0.9536692157482667  0.03126919402209321  1.0000
  C   C25       1.0  0.37915178889736717  0.6132771907034744  0.4195402685768348  1.0000
  C   C26       1.0  0.8791517886009466  0.11327718937840099  0.4195402683431537  1.0000
  C   C27       1.0  0.6208482112292381  0.6132771907034744  0.08045973242361923  1.0000
  C   C28       1.0  0.12084821106444153  0.11327718937840099  0.08045973153264334  1.0000
  C   C29       1.0  0.6208482110262502  0.38672281043417656  0.5804597316421215  1.0000
  C   C30       1.0  0.12084821132267079  0.886722810246754  0.5804597318758026  1.0000
  C   C31       1.0  0.37915178869437927  0.38672281043417656  0.919540267795337  1.0000
  C   C32       1.0  0.8791517888660406  0.886722810246754  0.9195402677228116  1.0000
  C   C33       1.0  0.3598465082037777  0.4757307444224935  0.3197960771438933  1.0000
  C   C34       1.0  0.8598465083754391  0.975730744235071  0.31979607707136776  1.0000
  C   C35       1.0  0.6401534914616104  0.4757307444224935  0.18020392273190372  1.0000
  C   C36       1.0  0.14015349175803096  0.975730744235071  0.18020392296558485  1.0000
  C   C37       1.0  0.6401534917198397  0.5242692552026614  0.680203923075063  1.0000
  C   C38       1.0  0.14015349155504309  0.024269255390084003  0.6802039221840871  1.0000
  C   C39       1.0  0.359846508462007  0.5242692552026614  0.8197960774870525  1.0000
  C   C40       1.0  0.8598465086336685  0.024269255390084003  0.8197960774145271  1.0000
  C   C41       1.0  0.47107031587781717  0.25743257016928794  0.6560651483242844  1.0000
  C   C42       1.0  0.9710703160494786  0.7574325699818654  0.656065148251759  1.0000
  C   C43       1.0  0.5289296838359477  0.25743257016928794  0.8439348520766755  1.0000
  C   C44       1.0  0.028929684139232914  0.7574325699818654  0.8439348513468552  1.0000
  C   C45       1.0  0.5289296840458003  0.7425674294558671  0.34393485189467177  1.0000
  C   C46       1.0  0.028929683874138922  0.2425674296432896  0.34393485196719736  1.0000
  C   C47       1.0  0.47107031608766986  0.7425674294558671  0.1560651481422808  1.0000
  C   C48       1.0  0.9710703157912494  0.2425674296432896  0.15606514790859968  1.0000
  C   C49       1.0  0.7076241569217092  0.9304257487657044  0.37059521589120226  1.0000
  C   C50       1.0  0.2076241572181298  0.43042574895312696  0.3705952161248834  1.0000
  C   C51       1.0  0.29237584274367895  0.9304257487657044  0.1294047839845948  1.0000
  C   C52       1.0  0.7923758429153401  0.43042574895312696  0.12940478391206922  1.0000
  C   C53       1.0  0.2923758430087729  0.06957425085945056  0.6294047833642527  1.0000
  C   C54       1.0  0.7923758427123525  0.569574250672028  0.6294047831305716  1.0000
  C   C55       1.0  0.7076241571799385  0.06957425085945056  0.8705952162343615  1.0000
  C   C56       1.0  0.2076241570082772  0.569574250672028  0.8705952163068872  1.0000
  C   C57       1.0  0.7350001272656665  0.8390970363597219  0.4975741652658132  1.0000
  C   C58       1.0  0.2350001275620871  0.3390970365471443  0.4975741654994944  1.0000
  C   C59       1.0  0.2649998723997216  0.8390970363597219  0.0024258346099837527  1.0000
  C   C60       1.0  0.7649998725713829  0.3390970365471443  0.0024258345374581734  1.0000
  C   C61       1.0  0.26499987266481567  0.1609029632654332  0.5024258339896417  1.0000
  C   C62       1.0  0.7649998723615303  0.6609029645905067  0.5024258347194618  1.0000
  C   C63       1.0  0.7350001275238959  0.1609029632654332  0.9975741656089724  1.0000
  C   C64       1.0  0.2350001273522345  0.6609029645905067  0.9975741656814981  1.0000
  N   N1        1.0  0.37722247719324176  0.28031746064740737  0.32638511912107626  1.0000
  N   N2        1.0  0.8772224773649031  0.780317460459985  0.3263851190485507  1.0000
  N   N3        1.0  0.6227775229402284  0.28031746064740737  0.17361488091587632  1.0000
  N   N4        1.0  0.12277752276856699  0.780317460459985  0.17361488098840186  1.0000
  N   N5        1.0  0.6227775227303758  0.7196825389777476  0.67361488109788  1.0000
  N   N6        1.0  0.122777523033661  0.2196825391651701  0.6736148803680596  1.0000
  N   N7        1.0  0.37722247698338907  0.7196825389777476  0.82638511930308  1.0000
  N   N8        1.0  0.8772224771550504  0.2196825391651701  0.8263851192305544  1.0000
  N   N9        1.0  0.481256452049924  0.06727636406892022  0.6892464280509408  1.0000
  N   N10       1.0  0.9812564522215853  0.5672763638814977  0.6892464279784152  1.0000
  N   N11       1.0  0.5187435476707055  0.06727636406892022  0.8107535713865176  1.0000
  N   N12       1.0  0.018743547967126087  0.5672763638814977  0.8107535716201988  1.0000
  N   N13       1.0  0.5187435478736934  0.9327236355562348  0.3107535721680155  1.0000
  N   N14       1.0  0.018743547708896812  0.43272363574365724  0.3107535712770396  1.0000
  N   N15       1.0  0.48125645225977665  0.9327236355562348  0.18924642786893708  1.0000
  N   N16       1.0  0.9812564524245733  0.43272363574365724  0.189246428759913  1.0000
  O   O1        1.0  0.49999999985688237  0.3866891226105104  0.75000000020048  1.0000
  O   O2        1.0  1.5330297558049017e-10  0.8866891224230878  0.7500000004341612  1.0000
  O   O3        1.0  0.5000000000667351  0.6133108770146445  0.2500000000184763  1.0000
  O   O4        1.0  0.9999999998950737  0.11331087720206703  0.2500000000910018  1.0000
  O   O5        1.0  0.7166922148184176  0.86407518955546  0.2633538871062602  1.0000
  O   O6        1.0  0.2166922151148382  0.36407518974288255  0.2633538873399413  1.0000
  O   O7        1.0  0.28330778484697056  0.86407518955546  0.23664611276953684  1.0000
  O   O8        1.0  0.783307785018632  0.36407518974288255  0.2366461126970113  1.0000
  O   O9        1.0  0.2833077851051998  0.1359248100696949  0.7366461131126962  1.0000
  O   O10       1.0  0.7833077848087793  0.6359248098822723  0.736646112879015  1.0000
  O   O11       1.0  0.7166922150835117  0.1359248100696949  0.7633538864859181  1.0000
  O   O12       1.0  0.2166922149118503  0.6359248098822723  0.7633538865584435  1.0000
  O   O13       1.0  0.6715808061883001  0.08904419154270672  0.3857586514964946  1.0000
  O   O14       1.0  0.1715808060235034  0.5890441913552842  0.3857586506055187  1.0000
  O   O15       1.0  0.32841919394517005  0.08904419154270672  0.11424134854045799  1.0000
  O   O16       1.0  0.8284191936418849  0.5890441913552842  0.1142413492702783  1.0000
  O   O17       1.0  0.32841919373531747  0.9109558080824482  0.6142413487224617  1.0000
  O   O18       1.0  0.8284191939069787  0.41095580826987077  0.6142413486499362  1.0000
  O   O19       1.0  0.6715808059853121  0.9109558080824482  0.8857586507149968  1.0000
  O   O20       1.0  0.17158080628173267  0.41095580826987077  0.8857586509486779  1.0000
