data_image0
_chemical_formula_structural       H16C2N12O6
_chemical_formula_sum              "H16 C2 N12 O6"
_cell_length_a       6.742996969167396
_cell_length_b       4.889623992101346
_cell_length_c       9.48983345865579
_cell_angle_alpha    90.0
_cell_angle_beta     102.05054240412761
_cell_angle_gamma    90.0

_space_group_name_H-M_alt    "P 1"
_space_group_IT_number       1

loop_
  _space_group_symop_operation_xyz
  'x, y, z'

loop_
  _atom_site_type_symbol
  _atom_site_label
  _atom_site_symmetry_multiplicity
  _atom_site_fract_x
  _atom_site_fract_y
  _atom_site_fract_z
  _atom_site_occupancy
  H   H1        1.0  0.24613048147690014  0.11059132581023051  0.006422017280230989  1.0000
  H   H2        1.0  0.7538695193771314  0.6105913245727789  0.9935779833347813  1.0000
  H   H3        1.0  0.22616871975693362  0.16024344433553736  0.5598731500463194  1.0000
  H   H4        1.0  0.7738312810970981  0.6602434451432327  0.44012685056869294  1.0000
  H   H5        1.0  0.029254213474507726  0.8644522742092254  0.7386056642001395  1.0000
  H   H6        1.0  0.9707457858631082  0.3644522734015299  0.26139433619543523  1.0000
  H   H7        1.0  0.04389654523563666  0.220019079532057  0.7199810660538738  1.0000
  H   H8        1.0  0.9561034556183949  0.7200190782946054  0.28001893456113847  1.0000
  H   H9        1.0  0.865248670001314  0.020989677358788775  0.5997594755743328  1.0000
  H   H10       1.0  0.13475132933630193  0.5209896781664842  0.40024052482124184  1.0000
  H   H11       1.0  0.4655263431576486  0.9145932237783633  0.29632410942756554  1.0000
  H   H12       1.0  0.5344736561720314  0.4145932250158148  0.7036758899130872  1.0000
  H   H13       1.0  0.6607718389467847  0.14263147455235756  0.32771576523294627  1.0000
  H   H14       1.0  0.33922816039083115  0.6426314753600529  0.6722842351626285  1.0000
  H   H15       1.0  0.4700157537379224  0.18555650730314777  0.4169273275681795  1.0000
  H   H16       1.0  0.5299842455996934  0.6855565060656962  0.5830726728273953  1.0000
  C   C1        1.0  0.2006066730554439  0.5432172318956806  0.9343595307602747  1.0000
  C   C2        1.0  0.799393326282172  0.04321723108798508  0.06564046963530014  1.0000
  N   N1        1.0  0.25027158330834043  0.7702965823311375  0.017134932849211776  1.0000
  N   N2        1.0  0.7497284175377553  0.27029658356858915  0.9828650667108785  1.0000
  N   N3        1.0  0.33401169769402056  0.6832478847855661  0.1516636835487329  1.0000
  N   N4        1.0  0.6659883031520752  0.18324788397787062  0.8483363160113574  1.0000
  N   N5        1.0  0.3400167404320386  0.41727528196358515  0.15805979005040474  1.0000
  N   N6        1.0  0.6599832589055771  0.9172752827712807  0.8419402103451701  1.0000
  N   N7        1.0  0.2578364527726483  0.32607347161571965  0.02447064838112275  1.0000
  N   N8        1.0  0.7421635465570318  0.826073470378268  0.9755293509595301  1.0000
  N   N9        1.0  0.012398836103986566  0.030208647993916843  0.6666973448492718  1.0000
  N   N10       1.0  0.9876011647500451  0.5302086488016123  0.3333026557657407  1.0000
  N   N11       1.0  0.5569985878993979  0.03914146983677373  0.37419245603107637  1.0000
  N   N12       1.0  0.44300141143028204  0.5391414706444692  0.6258075433095763  1.0000
  O   O1        1.0  0.11735100639282814  0.5332427123664109  0.8004501810067662  1.0000
  O   O2        1.0  0.8826489944532677  0.03324271360386252  0.199549818553324  1.0000
  O   O3        1.0  0.1555581187785126  0.9740214600741198  0.5798744935806432  1.0000
  O   O4        1.0  0.8444418820755191  0.47402145926642447  0.4201255070343691  1.0000
  O   O5        1.0  0.6642393008871363  0.879538252214724  0.48954018720025816  1.0000
  O   O6        1.0  0.33576069845047957  0.3795382514070287  0.5104598131953165  1.0000
