data_image0
_chemical_formula_structural       H156C104N8O32
_chemical_formula_sum              "H156 C104 N8 O32"
_cell_length_a       12.839528562625592
_cell_length_b       17.052393413970734
_cell_length_c       13.90855945255458
_cell_angle_alpha    90.0
_cell_angle_beta     118.62553583712472
_cell_angle_gamma    90.0

_space_group_name_H-M_alt    "P 1"
_space_group_IT_number       1

loop_
  _space_group_symop_operation_xyz
  'x, y, z'

loop_
  _atom_site_type_symbol
  _atom_site_label
  _atom_site_symmetry_multiplicity
  _atom_site_fract_x
  _atom_site_fract_y
  _atom_site_fract_z
  _atom_site_occupancy
  H   H1        1.0  0.5202354951315533  0.5075451204937146  0.8363869072467244  1.0000
  H   H2        1.0  0.47976450471093207  0.007545120316928011  0.16361309269858357  1.0000
  H   H3        1.0  0.6692389889631194  0.493751372936419  0.9448862527693402  1.0000
  H   H4        1.0  0.3307610108781224  0.9937513731132056  0.05511374645643676  1.0000
  H   H5        1.0  0.5638768824147945  0.5373058079045633  0.9737795750711699  1.0000
  H   H6        1.0  0.43612311742769083  0.03730580772777682  0.026220424874138205  1.0000
  H   H7        1.0  0.5830500572222821  0.33239949269268765  0.0820194772655879  1.0000
  H   H8        1.0  0.4169499426202033  0.8323994922830462  0.9179805226797201  1.0000
  H   H9        1.0  0.6639799549539336  0.42428017078661195  0.12335197816636745  1.0000
  H   H10       1.0  0.3360200448885517  0.9242801709633984  0.8766480217789406  1.0000
  H   H11       1.0  0.7018294307244951  0.3533867712120064  0.05445546605187616  1.0000
  H   H12       1.0  0.29817056911799017  0.8533867713887928  0.9455445338934318  1.0000
  H   H13       1.0  0.6867503629136531  0.4081675288055224  0.3020196315309634  1.0000
  H   H14       1.0  0.31324963692883223  0.9081675289823089  0.6979803684143446  1.0000
  H   H15       1.0  0.590651887741734  0.484788279235169  0.30299349994180164  1.0000
  H   H16       1.0  0.40934811298805024  0.9847882794119555  0.6970065003949157  1.0000
  H   H17       1.0  0.5340180392004038  0.38956961047810607  0.2650331242797399  1.0000
  H   H18       1.0  0.46598196152938054  0.8895696106548926  0.7349668760569774  1.0000
  H   H19       1.0  0.5810176232240402  0.39237409949258184  0.5512149661966942  1.0000
  H   H20       1.0  0.4189823766184452  0.8923740990829404  0.4487850337486138  1.0000
  H   H21       1.0  0.4699335088433241  0.39581314459178496  0.40952111899589644  1.0000
  H   H22       1.0  0.5300664909991613  0.8958131441821435  0.5904788809494116  1.0000
  H   H23       1.0  0.5438572047961152  0.4822973286120617  0.4750808901145489  1.0000
  H   H24       1.0  0.45614279593366913  0.9822973282024202  0.5249191102221685  1.0000
  H   H25       1.0  0.3925220947856754  0.17312798668961477  0.8647519072115388  1.0000
  H   H26       1.0  0.60747790505681  0.6731279868664013  0.1352480927337692  1.0000
  H   H27       1.0  0.29602061769360294  0.2568011658945365  0.8262175059380488  1.0000
  H   H28       1.0  0.7039793821488823  0.756801166071323  0.17378249400725915  1.0000
  H   H29       1.0  0.25043982845323476  0.167679824795585  0.8612538165446225  1.0000
  H   H30       1.0  0.7495601722765496  0.6676798243859435  0.1387461837920947  1.0000
  H   H31       1.0  0.23926888324120316  0.23962743180979096  0.03234809107328475  1.0000
  H   H32       1.0  0.760731117488581  0.7396274319865774  0.9676519092634326  1.0000
  H   H33       1.0  0.25907237522748927  0.3247786416575754  0.9704522455491601  1.0000
  H   H34       1.0  0.7409276246149961  0.8247786418343619  0.029547754396147943  1.0000
  H   H35       1.0  0.35977206853454297  0.3045048893691277  0.11196061129572983  1.0000
  H   H36       1.0  0.6402279313079424  0.8045048895459143  0.8880393886495782  1.0000
  H   H37       1.0  0.401620737594939  0.3874844199047483  0.7404091132497391  1.0000
  H   H38       1.0  0.5983792631348454  0.8874844194951068  0.25959088708697825  1.0000
  H   H39       1.0  0.30183054126321246  0.3746722635876764  0.6181644351127076  1.0000
  H   H40       1.0  0.6981694585792729  0.8746722637644628  0.38183556483260045  1.0000
  H   H41       1.0  0.9951085886258859  0.2268605741192079  0.26335456926302303  1.0000
  H   H42       1.0  0.004891411216599404  0.7268605737095664  0.7366454306822848  1.0000
  H   H43       1.0  0.854288638712543  0.5603198535269495  0.06642864843910788  1.0000
  H   H44       1.0  0.14571136112994243  0.060319853350162995  0.9335713515062001  1.0000
  H   H45       1.0  0.4012319140303804  0.48682946366922514  0.6490712547047355  1.0000
  H   H46       1.0  0.598768085812105  0.9868294638460117  0.35092874524057255  1.0000
  H   H47       1.0  0.4903826069346893  0.5688350048300526  0.5668807549914304  1.0000
  H   H48       1.0  0.509617392907796  0.06883500465326611  0.43311924495387755  1.0000
  H   H49       1.0  0.9038617986340458  0.4055975804741582  0.4676198610123298  1.0000
  H   H50       1.0  0.09613820209573842  0.9055975800645167  0.5323801393243874  1.0000
  H   H51       1.0  0.8487312744749717  0.7407218103267295  0.5780836835092715  1.0000
  H   H52       1.0  0.15126872536751368  0.24072181014994293  0.4219163164360365  1.0000
  H   H53       1.0  0.7246400608118595  0.521634349153145  0.7285518113373372  1.0000
  H   H54       1.0  0.27535993903062583  0.02163434897635849  0.2714481886079708  1.0000
  H   H55       1.0  0.7016659272572223  0.42312114404355033  0.7551574061155638  1.0000
  H   H56       1.0  0.298334072585263  0.9231211442203369  0.24484259382974424  1.0000
  H   H57       1.0  0.7715042781058937  0.44167017011404064  0.6731028257241459  1.0000
  H   H58       1.0  0.22849572173659158  0.9416701702908271  0.3268971742211621  1.0000
  H   H59       1.0  0.907294246230151  0.1864830538917015  0.9148045252177338  1.0000
  H   H60       1.0  0.09270575361233441  0.6864830540684881  0.08519547472757427  1.0000
  H   H61       1.0  0.05556791112122845  0.18414473462870984  0.020256826602118333  1.0000
  H   H62       1.0  0.944432088721257  0.6841447342190684  0.9797431733431897  1.0000
  H   H63       1.0  0.013916718557314675  0.24397489367043876  0.9013258600902511  1.0000
  H   H64       1.0  0.9860832812851706  0.7439748932607974  0.09867413985505687  1.0000
  H   H65       1.0  0.14624072520676568  0.43150239742719015  0.7936662084095425  1.0000
  H   H66       1.0  0.8537592746357197  0.9315023976039767  0.20633379153576545  1.0000
  H   H67       1.0  0.17629203128199789  0.4906394660790201  0.5964448843783995  1.0000
  H   H68       1.0  0.8237079685604874  0.9906394656693788  0.4035551155669085  1.0000
  H   H69       1.0  0.27340371591582674  0.5507825940905846  0.832074267277638  1.0000
  H   H70       1.0  0.7265962848139575  0.050782593913798045  0.16792573305907935  1.0000
  H   H71       1.0  0.39971868352294265  0.6303443170149726  0.787626644584519  1.0000
  H   H72       1.0  0.6002813163195426  0.13034431683818615  0.21237335536078905  1.0000
  H   H73       1.0  0.25127012985222735  0.5741029920163206  0.5525393037295208  1.0000
  H   H74       1.0  0.748729869990258  0.07410299242596213  0.4474606962157872  1.0000
  H   H75       1.0  0.2896018758936933  0.7110811389130675  0.5418872798041492  1.0000
  H   H76       1.0  0.710398123948792  0.2110811393227089  0.45811272014115884  1.0000
  H   H77       1.0  0.39804539289763763  0.7042552607401749  0.43987301025281667  1.0000
  H   H78       1.0  0.6019546069448477  0.20425526114981632  0.5601269896924913  1.0000
  H   H79       1.0  0.2780869012483529  0.5460178101668549  0.4162050362923377  1.0000
  H   H80       1.0  0.7219130985941324  0.04601780999006846  0.5837949636529703  1.0000
  H   H81       1.0  0.39505842428817295  0.5638306832707056  0.3174297646740542  1.0000
  H   H82       1.0  0.6049415755543124  0.06383068368034708  0.6825702352712538  1.0000
  H   H83       1.0  0.12619656278533375  0.5597892294802049  0.1646933538161137  1.0000
  H   H84       1.0  0.8738034370571516  0.05978922930341851  0.8353066461291943  1.0000
  H   H85       1.0  0.2491358758986929  0.5877171337009595  0.07375864316144795  1.0000
  H   H86       1.0  0.7508641239437924  0.08771713352417305  0.92624135678386  1.0000
  H   H87       1.0  0.11719987948933941  0.42910006838131926  0.01093466649620951  1.0000
  H   H88       1.0  0.8828001212404448  0.9291000679716779  0.9890653338405078  1.0000
  H   H89       1.0  0.08596837408131763  0.5920761499513764  0.8997244612808102  1.0000
  H   H90       1.0  0.9140316257611678  0.09207614977458992  0.1002755386644977  1.0000
  H   H91       1.0  0.027606010960560708  0.3163216986057074  0.7577373778350729  1.0000
  H   H92       1.0  0.9723939888819246  0.8163216987824938  0.24226262211023503  1.0000
  H   H93       1.0  0.051305199465913755  0.2468819759079026  0.6741876639958995  1.0000
  H   H94       1.0  0.9486948003765716  0.7468819754982612  0.32581233594940845  1.0000
  H   H95       1.0  0.9215510406574207  0.30516875336318294  0.6173142684911818  1.0000
  H   H96       1.0  0.07844895918506466  0.8051687535399694  0.38268573145412615  1.0000
  H   H97       1.0  0.14769523956967182  0.6820726544152415  0.6222468783415889  1.0000
  H   H98       1.0  0.8523047611601126  0.18207265423845495  0.3777531219951284  1.0000
  H   H99       1.0  0.27444790957888526  0.7435097943267379  0.6901908257453255  1.0000
  H   H100      1.0  0.7255520902636001  0.2435097941499514  0.3098091741999824  1.0000
  H   H101      1.0  0.21366066413813276  0.6964199594568644  0.7652590413285846  1.0000
  H   H102      1.0  0.7863393365916516  0.19641995986650584  0.2347409590081327  1.0000
  H   H103      1.0  0.4584726934320104  0.7346586690720072  0.7285455249454958  1.0000
  H   H104      1.0  0.541527306410475  0.23465866948164862  0.2714544749998121  1.0000
  H   H105      1.0  0.49206141322859365  0.7670800035192321  0.6252955066681696  1.0000
  H   H106      1.0  0.5079385866138917  0.2670800033424455  0.37470449327713845  1.0000
  H   H107      1.0  0.5530381653132116  0.6779277910940555  0.6966932717425945  1.0000
  H   H108      1.0  0.4469618345292738  0.17792779150369695  0.3033067282027134  1.0000
  H   H109      1.0  0.1392077216462279  0.6503222662523445  0.41162020004960387  1.0000
  H   H110      1.0  0.8607922781962575  0.15032226666198584  0.5883797998957042  1.0000
  H   H111      1.0  0.0878641501402716  0.6136733446125242  0.27814217845499034  1.0000
  H   H112      1.0  0.9121358505895127  0.11367334502216563  0.721857821881727  1.0000
  H   H113      1.0  0.16342091911170992  0.7047663244828668  0.31534168969304244  1.0000
  H   H114      1.0  0.8365790807307754  0.20476632430608036  0.6846583102522654  1.0000
  H   H115      1.0  0.30534005473925196  0.4289857020309393  0.2863982333506912  1.0000
  H   H116      1.0  0.6946599451032334  0.9289857022077257  0.7136017665946167  1.0000
  H   H117      1.0  0.15937030122667278  0.41160216865801463  0.17966568011031492  1.0000
  H   H118      1.0  0.8406296986158126  0.9116021688348012  0.8203343198349929  1.0000
  H   H119      1.0  0.18000315627483837  0.45484631404559683  0.3026718477699306  1.0000
  H   H120      1.0  0.819996843567647  0.9548463142223834  0.6973281521753774  1.0000
  H   H121      1.0  0.429180464520951  0.8051145857772644  0.2299380763933064  1.0000
  H   H122      1.0  0.5708195353215344  0.305114585600478  0.7700619235520015  1.0000
  H   H123      1.0  0.2821730499067312  0.7803938659483028  0.1260472475372498  1.0000
  H   H124      1.0  0.7178269499357542  0.28039386577151637  0.8739527524080581  1.0000
  H   H125      1.0  0.40952855527334814  0.7618829952255227  0.10689954698898725  1.0000
  H   H126      1.0  0.5904714454564362  0.26188299504873624  0.89310045334773  1.0000
  H   H127      1.0  0.3359645221095056  0.46998464880794794  0.9788728392876288  1.0000
  H   H128      1.0  0.6640354786202787  0.9699846483983064  0.0211271610490885  1.0000
  H   H129      1.0  0.47993019714950985  0.46601951861428237  0.0967912081986022  1.0000
  H   H130      1.0  0.5200698026929755  0.9660195187910688  0.9032087917467058  1.0000
  H   H131      1.0  0.40757779751699025  0.5586406980380466  0.04996717882042496  1.0000
  H   H132      1.0  0.5924222023254951  0.05864069786126013  0.9500328211248831  1.0000
  H   H133      1.0  0.8313120842351747  0.5822295210398927  0.28399575753790424  1.0000
  H   H134      1.0  0.1686879156073106  0.08222952086310613  0.7160042424074039  1.0000
  H   H135      1.0  0.7099404699710324  0.6355859653765903  0.31460485094745544  1.0000
  H   H136      1.0  0.29005952987145284  0.13558596519980384  0.6853951489978526  1.0000
  H   H137      1.0  0.8418988043703924  0.688106931686589  0.40236873489476793  1.0000
  H   H138      1.0  0.15810119547209295  0.18810693209623044  0.5976312650505401  1.0000
  H   H139      1.0  0.6687928172167719  0.7524250677613424  0.3983020069894307  1.0000
  H   H140      1.0  0.33120718262571347  0.252425067584556  0.6016979929558773  1.0000
  H   H141      1.0  0.619662487280455  0.6622832722559296  0.429398549630029  1.0000
  H   H142      1.0  0.3803375125620303  0.1622832720791431  0.570601450315279  1.0000
  H   H143      1.0  0.7158891380184907  0.6049254875593445  0.5973269031579223  1.0000
  H   H144      1.0  0.2841108618239945  0.10492548796898586  0.40267309678738566  1.0000
  H   H145      1.0  0.8497803625626045  0.6445222200301544  0.7073898641942161  1.0000
  H   H146      1.0  0.15021963727988094  0.14452222043979576  0.29261013575109185  1.0000
  H   H147      1.0  0.9632762909667889  0.6158059302922685  0.6119847425693657  1.0000
  H   H148      1.0  0.036723708875696495  0.11580593011548197  0.3880152573759423  1.0000
  H   H149      1.0  0.8923115844453442  0.5284949415145758  0.6183619697263756  1.0000
  H   H150      1.0  0.10768841539714104  0.02849494133778926  0.38163803021893244  1.0000
  H   H151      1.0  0.6854272629038467  0.8184990558900059  0.5557890244088145  1.0000
  H   H152      1.0  0.31457273693863863  0.3184990562996473  0.44421097553649347  1.0000
  H   H153      1.0  0.7610360381408435  0.7733440649566422  0.688425867413522  1.0000
  H   H154      1.0  0.23896396170164183  0.2733440647798556  0.311574132531786  1.0000
  H   H155      1.0  0.6228944189127051  0.7330957025515324  0.5856996106276616  1.0000
  H   H156      1.0  0.37710558181707926  0.23309570296117388  0.4143003897090556  1.0000
  C   C1        1.0  0.5749593271135355  0.492102085981958  0.9227736312688978  1.0000
  C   C2        1.0  0.4250406727277063  0.9921020861587445  0.07722636795687927  1.0000
  C   C3        1.0  0.5435497552043539  0.4134249186524251  0.9495650261117302  1.0000
  C   C4        1.0  0.4564502446381313  0.9134249188292116  0.050434973833577694  1.0000
  C   C5        1.0  0.6259100586178961  0.37909343357653164  0.059667202788524165  1.0000
  C   C6        1.0  0.3740899421118882  0.8790934331668901  0.9403327975481931  1.0000
  C   C7        1.0  0.6145927813917686  0.4223634615478243  0.3197135834314989  1.0000
  C   C8        1.0  0.3854072184507167  0.9223634617246108  0.6802864165138091  1.0000
  C   C9        1.0  0.649766325249848  0.40498623755314284  0.43724300649394815  1.0000
  C   C10       1.0  0.3502336745926374  0.9049862371435015  0.5627569934513599  1.0000
  C   C11       1.0  0.5561966840635819  0.41854957581218805  0.4713157017500221  1.0000
  C   C12       1.0  0.44380331577890336  0.9185495759889746  0.5286842981952858  1.0000
  C   C13       1.0  0.32776647784921387  0.20510125676168045  0.8799058700621887  1.0000
  C   C14       1.0  0.6722335219932716  0.705101256938467  0.12009412988311932  1.0000
  C   C15       1.0  0.38369825907670896  0.23118145320118086  0.9974087329415754  1.0000
  C   C16       1.0  0.6163017407657764  0.7311814527915395  0.002591267003732527  1.0000
  C   C17       1.0  0.30687727385364566  0.2785619188276694  0.0307208039340911  1.0000
  C   C18       1.0  0.6931227268761386  0.7785619190044559  0.9692791964026263  1.0000
  C   C19       1.0  0.9662179176699426  0.3326940654179383  0.2851615929658154  1.0000
  C   C20       1.0  0.033782083059841796  0.8326940655947248  0.7148384073709019  1.0000
  C   C21       1.0  0.9456112683002669  0.3933261640858547  0.34103045647888375  1.0000
  C   C22       1.0  0.054388731542218516  0.8933261636762132  0.6589695434664242  1.0000
  C   C23       1.0  0.9049221701962926  0.46772046283342267  0.2899750638712617  1.0000
  C   C24       1.0  0.09507782964619263  0.9677204624237813  0.7100249360740463  1.0000
  C   C25       1.0  0.8948207274836529  0.4815647018366459  0.1852716558631215  1.0000
  C   C26       1.0  0.10517927235883251  0.9815647020134325  0.8147283440821864  1.0000
  C   C27       1.0  0.903964267644056  0.42849384028482634  0.019985537182605862  1.0000
  C   C28       1.0  0.09603573219842916  0.9284938398751849  0.980014462762702  1.0000
  C   C29       1.0  0.9305478948780695  0.36384130774961304  0.9711631859520563  1.0000
  C   C30       1.0  0.06945210585171481  0.8638413079263995  0.028836814384660965  1.0000
  C   C31       1.0  0.9620472048020438  0.2897349609558145  0.016166471639422732  1.0000
  C   C32       1.0  0.037952795040441675  0.7897349611326011  0.9838335283058852  1.0000
  C   C33       1.0  0.966923948813029  0.27938877108574883  0.11987328026454713  1.0000
  C   C34       1.0  0.033076051029456176  0.7793887706761073  0.8801267196807608  1.0000
  C   C35       1.0  0.9487551770754338  0.3450637759259768  0.1773047374203895  1.0000
  C   C36       1.0  0.051244822767051404  0.8450637755163353  0.8226952625249185  1.0000
  C   C37       1.0  0.9151846308240829  0.4203808037953764  0.1276614460994206  1.0000
  C   C38       1.0  0.08481536901840246  0.9203808039721629  0.8723385538458875  1.0000
  C   C39       1.0  0.8740500228029864  0.49188857343204123  0.9465563342901036  1.0000
  C   C40       1.0  0.12594997703949895  0.9918885736088278  0.053443665655204295  1.0000
  C   C41       1.0  0.8816355167063356  0.4625202966252381  0.845338744104458  1.0000
  C   C42       1.0  0.11836448313614983  0.9625202968020247  0.15466125584085  1.0000
  C   C43       1.0  0.7622031530191068  0.4623822667344855  0.7432483375947724  1.0000
  C   C44       1.0  0.23779684682337862  0.962382266911272  0.2567516623505357  1.0000
  C   C45       1.0  0.9868172305714761  0.2228325835414321  0.9604625518787425  1.0000
  C   C46       1.0  0.0131827692710093  0.7228325831317907  0.03953744806656537  1.0000
  C   C47       1.0  0.07147740967955092  0.36356402233370616  0.5347029742539017  1.0000
  C   C48       1.0  0.9285225901629345  0.8635640225104927  0.4652970256914063  1.0000
  C   C49       1.0  0.07871909066889222  0.3680635643122028  0.6457078783546168  1.0000
  C   C50       1.0  0.9212809091735931  0.8680635644889892  0.35429212159069107  1.0000
  C   C51       1.0  0.13895204524187243  0.42875074557041576  0.7120031397916374  1.0000
  C   C52       1.0  0.8610479546006128  0.9287507457472023  0.28799686015367054  1.0000
  C   C53       1.0  0.19231760269199571  0.4916983672878795  0.6810810939198901  1.0000
  C   C54       1.0  0.8076823971504896  0.991698367464666  0.3189189060254178  1.0000
  C   C55       1.0  0.2593025071862837  0.5495663032452768  0.7480253970275974  1.0000
  C   C56       1.0  0.7406974926562017  0.04956630306849022  0.25197460291771057  1.0000
  C   C57       1.0  0.3128342528963219  0.6169543116088734  0.7169523699874428  1.0000
  C   C58       1.0  0.6871657469461635  0.11695431143208686  0.2830476299578652  1.0000
  C   C59       1.0  0.3338538692597169  0.5986438133450819  0.6193223352631991  1.0000
  C   C60       1.0  0.6661461305827684  0.09864381316829539  0.3806776646821088  1.0000
  C   C61       1.0  0.3660721575363187  0.6710842203901102  0.5731967393235983  1.0000
  C   C62       1.0  0.6339278423061666  0.1710842202133237  0.42680326062170965  1.0000
  C   C63       1.0  0.3852942460647299  0.649196420188749  0.47481722129368936  1.0000
  C   C64       1.0  0.6147057546650545  0.14919642059839042  0.5251827790430279  1.0000
  C   C65       1.0  0.28052485085935397  0.604015751335027  0.38244619621484  1.0000
  C   C66       1.0  0.7194751489818878  0.10401575115824055  0.6175538030109369  1.0000
  C   C67       1.0  0.305506789175854  0.5880081567778688  0.2866566473194379  1.0000
  C   C68       1.0  0.6944932106666314  0.08800815660108226  0.71334335262587  1.0000
  C   C69       1.0  0.21512875972840592  0.533696396104952  0.1971792964512481  1.0000
  C   C70       1.0  0.7848712401140794  0.03369639592816552  0.8028207034940599  1.0000
  C   C71       1.0  0.23812533867581648  0.5277958032932965  0.09818568688713061  1.0000
  C   C72       1.0  0.7618746611666687  0.027795803116509865  0.9018143130581773  1.0000
  C   C73       1.0  0.13598218061341374  0.4900495999085763  0.0016782406027367961  1.0000
  C   C74       1.0  0.8640178192290715  0.9900496000853628  0.9983217593425712  1.0000
  C   C75       1.0  0.06677318622996097  0.5315436666253516  0.9117009382276586  1.0000
  C   C76       1.0  0.9332268136125245  0.03154366644856503  0.08829906171764942  1.0000
  C   C77       1.0  0.017068619859402744  0.30587597549366224  0.6756750285539554  1.0000
  C   C78       1.0  0.9829313799830824  0.8058759756704488  0.32432497139135247  1.0000
  C   C79       1.0  0.23307167457875408  0.6890162456827871  0.6971183295560667  1.0000
  C   C80       1.0  0.7669283261510302  0.1890162455060006  0.30288167078065065  1.0000
  C   C81       1.0  0.47353202565613844  0.7150225187750249  0.6611147955224189  1.0000
  C   C82       1.0  0.5264679741863468  0.2150225185982384  0.33888520442288916  1.0000
  C   C83       1.0  0.16136745200351468  0.6453840292579405  0.3448658386101739  1.0000
  C   C84       1.0  0.8386325478389707  0.14538402966758193  0.6551341613351341  1.0000
  C   C85       1.0  0.2149765005083094  0.4527798158629353  0.2446020693662916  1.0000
  C   C86       1.0  0.7850234993341759  0.9527798160397218  0.7553979305790163  1.0000
  C   C87       1.0  0.39352008728473453  0.6831632368073157  0.21742645346936648  1.0000
  C   C88       1.0  0.6064799125577508  0.18316323663052925  0.7825735464759416  1.0000
  C   C89       1.0  0.3754836702057978  0.7625246500205051  0.16557340929910172  1.0000
  C   C90       1.0  0.6245163305239865  0.2625246498437186  0.8344265910376156  1.0000
  C   C91       1.0  0.39392249106038685  0.4958118831033504  0.059989858422280225  1.0000
  C   C92       1.0  0.6060775087820985  0.995811882693709  0.9400101415230278  1.0000
  C   C93       1.0  0.8672245804368757  0.5307202396928896  0.336493155326682  1.0000
  C   C94       1.0  0.13277541940560975  0.030720239516103098  0.6635068446186261  1.0000
  C   C95       1.0  0.769993605836369  0.6509742263455763  0.40028683578820173  1.0000
  C   C96       1.0  0.23000639400611644  0.1509742267552178  0.5997131641571064  1.0000
  C   C97       1.0  0.697329487126223  0.6962183320420767  0.44090534258517555  1.0000
  C   C98       1.0  0.30267051271626233  0.19621833245171824  0.5590946573601324  1.0000
  C   C99       1.0  0.800589322408758  0.6339174910862488  0.6189143432837974  1.0000
  C   C100      1.0  0.19941067832102624  0.13391749090946226  0.38108565705291986  1.0000
  C   C101      1.0  0.8758376087821924  0.5872850664936686  0.5822429035604879  1.0000
  C   C102      1.0  0.12416239194759188  0.08728506690331009  0.41775709677622935  1.0000
  C   C103      1.0  0.7046019646065683  0.7630195336298105  0.6006068774387222  1.0000
  C   C104      1.0  0.29539803523591707  0.2630195334530239  0.39939312250658593  1.0000
  N   N1        1.0  0.9646811263056879  0.38052850192183213  0.4489456178106097  1.0000
  N   N2        1.0  0.0353188735367974  0.8805285020986185  0.5510543821346982  1.0000
  N   N3        1.0  0.8692812739753082  0.5244608491540488  0.43077724927278666  1.0000
  N   N4        1.0  0.1307187258671772  0.024460848977262275  0.5692227506725214  1.0000
  N   N5        1.0  0.8167634296498415  0.5792076619524884  0.46324142684590297  1.0000
  N   N6        1.0  0.18323657019264394  0.07920766177570186  0.536758573099405  1.0000
  N   N7        1.0  0.7690893430998756  0.7115808230215175  0.5609336057182794  1.0000
  N   N8        1.0  0.23091065674260972  0.21158082343115897  0.4390663942270285  1.0000
  O   O1        1.0  0.4552000966434932  0.37633947881722346  0.8832914049656834  1.0000
  O   O2        1.0  0.5447999031989922  0.87633947899401  0.11670859497962464  1.0000
  O   O3        1.0  0.7504627192189914  0.3824800039305024  0.5030393588041282  1.0000
  O   O4        1.0  0.24953728062349387  0.8824800041072889  0.4969606411411797  1.0000
  O   O5        1.0  0.4867518529464165  0.21381166980424543  0.0635949519103064  1.0000
  O   O6        1.0  0.5132481468960688  0.713811669981032  0.9364050480350017  1.0000
  O   O7        1.0  0.3867941422720327  0.3894191260306913  0.663524020890972  1.0000
  O   O8        1.0  0.6132058575704525  0.8894191262074778  0.336475979054336  1.0000
  O   O9        1.0  0.0008350980448387443  0.26102675688641247  0.3320035745990388  1.0000
  O   O10       1.0  0.9991649017976465  0.761026757063199  0.6679964253462691  1.0000
  O   O11       1.0  0.8648471612047268  0.5553335194719108  0.14426149584914263  1.0000
  O   O12       1.0  0.13515283863775857  0.05533351929512429  0.8557385040961654  1.0000
  O   O13       1.0  0.9224002249462232  0.381310166388304  0.8717314159182087  1.0000
  O   O14       1.0  0.0775997748962622  0.8813101665650904  0.1282685840270993  1.0000
  O   O15       1.0  0.9892990246680492  0.21028735280421873  0.16523913211147034  1.0000
  O   O16       1.0  0.010700975174436187  0.7102873523945773  0.8347608678338376  1.0000
  O   O17       1.0  0.842060376559578  0.5612442117456079  0.9513790644855781  1.0000
  O   O18       1.0  0.1579396232829074  0.06124421215524933  0.04862093545972991  1.0000
  O   O19       1.0  0.9610095486206558  0.5070376456900362  0.8237320044355095  1.0000
  O   O20       1.0  0.038990451221829474  0.007037645513249707  0.17626799550979846  1.0000
  O   O21       1.0  0.1607078794264657  0.34729811799603394  0.5235399627880339  1.0000
  O   O22       1.0  0.8392921213033185  0.8472981181728204  0.4764600375486834  1.0000
  O   O23       1.0  0.4283814677160156  0.5420603017771699  0.6487857655296709  1.0000
  O   O24       1.0  0.5716185321264698  0.04206030160038337  0.3512142344156371  1.0000
  O   O25       1.0  0.49406918600170524  0.605136120748059  0.5124124652919817  1.0000
  O   O26       1.0  0.5059308138407801  0.10513612115770044  0.4875875346533263  1.0000
  O   O27       1.0  0.30274071480046283  0.6642643372700832  0.23679525821697567  1.0000
  O   O28       1.0  0.6972592850420225  0.16426433709329663  0.7632047417283324  1.0000
  O   O29       1.0  0.34690514255434335  0.48535313014883064  0.13300856285035592  1.0000
  O   O30       1.0  0.653094857288142  0.9853531303256172  0.866991437094952  1.0000
  O   O31       1.0  0.48006201353786  0.6413422042585517  0.24074986542137133  1.0000
  O   O32       1.0  0.5199379863046253  0.14134220408176518  0.7592501345239366  1.0000
