data_image0
_chemical_formula_structural       H28C26N6O6F6S2
_chemical_formula_sum              "H28 C26 N6 O6 F6 S2"
_cell_length_a       8.266149568456424
_cell_length_b       5.383537795203821
_cell_length_c       16.108727947535105
_cell_angle_alpha    90.0
_cell_angle_beta     98.15522426145128
_cell_angle_gamma    90.0

_space_group_name_H-M_alt    "P 1"
_space_group_IT_number       1

loop_
  _space_group_symop_operation_xyz
  'x, y, z'

loop_
  _atom_site_type_symbol
  _atom_site_label
  _atom_site_symmetry_multiplicity
  _atom_site_fract_x
  _atom_site_fract_y
  _atom_site_fract_z
  _atom_site_occupancy
  H   H1        1.0  0.045339125895318  0.5905289738714722  0.4706333780507505  1.0000
  H   H2        1.0  0.95466087416123  0.09052897342602353  0.5293666221660595  1.0000
  H   H3        1.0  0.03464813627990385  0.294414013664409  0.35064853808825575  1.0000
  H   H4        1.0  0.9653518637766441  0.7944140141098577  0.6493514621285543  1.0000
  H   H5        1.0  0.3889522570904098  0.054018727287302316  0.36530950000713724  1.0000
  H   H6        1.0  0.6110477429661382  0.5540187258752364  0.6346905002096728  1.0000
  H   H7        1.0  0.3021017409945423  0.17899720159083915  0.08382726288552876  1.0000
  H   H8        1.0  0.6978982590620058  0.6789972020362878  0.9161727373312812  1.0000
  H   H9        1.0  0.4529149139702557  0.40834347108299096  0.0771760361736635  1.0000
  H   H10       1.0  0.5470850860862922  0.9083434715284395  0.9228239640431465  1.0000
  H   H11       1.0  0.795900664998052  0.7868524641498542  0.04769038081804  1.0000
  H   H12       1.0  0.204099335058496  0.28685246556192023  0.95230961939877  1.0000
  H   H13       1.0  0.9286031563857349  0.016502915625325586  0.03319757607426944  1.0000
  H   H14       1.0  0.07139684366674356  0.5165029160707743  0.9668024235214663  1.0000
  H   H15       1.0  0.6112536305312687  0.04401681738189198  0.07415827942795632  1.0000
  H   H16       1.0  0.3887463695252793  0.5440168178273407  0.9258417207888537  1.0000
  H   H17       1.0  0.8429303612857649  0.31985898966551346  0.2068751163544202  1.0000
  H   H18       1.0  0.15706963876671354  0.8198589901109621  0.7931248832413156  1.0000
  H   H19       1.0  0.6483602382864252  0.19050228660299984  0.21567261559911238  1.0000
  H   H20       1.0  0.3516397617701229  0.6905022870484484  0.7843273846176977  1.0000
  H   H21       1.0  0.922205194997995  0.9395080618744889  0.28438495113655926  1.0000
  H   H22       1.0  0.07779480505855295  0.4395080614290401  0.7156150490802508  1.0000
  H   H23       1.0  0.7627894693313477  0.7680710338253419  0.2249485192643446  1.0000
  H   H24       1.0  0.2372105307252003  0.2680710333798932  0.7750514809524655  1.0000
  H   H25       1.0  0.06752635430502217  0.9922602595562825  0.16480390995592412  1.0000
  H   H26       1.0  0.9324736457474563  0.4922602591108339  0.8351960896398116  1.0000
  H   H27       1.0  0.9999901229716299  0.6763779820110171  0.15087695497225276  1.0000
  H   H28       1.0  9.877084918116054e-06  0.17637798342308295  0.8491230452445573  1.0000
  C   C1        1.0  0.31820234627147714  0.9542239370134318  0.561539123749832  1.0000
  C   C2        1.0  0.6817976537850708  0.4542239365679831  0.4384608764669781  1.0000
  C   C3        1.0  0.21761839388497747  0.8330708152537829  0.4228471189999265  1.0000
  C   C4        1.0  0.7823816061715706  0.33307081666584887  0.5771528812168836  1.0000
  C   C5        1.0  0.11736662296899095  0.6240117257081156  0.4203011661700189  1.0000
  C   C6        1.0  0.882633377087557  0.12401172526266695  0.5796988340467911  1.0000
  C   C7        1.0  0.11081473637475668  0.4598013934638464  0.35310404745663526  1.0000
  C   C8        1.0  0.8891852636777218  0.9598013939092951  0.6468959521391003  1.0000
  C   C9        1.0  0.20494413496600786  0.5064496050216315  0.28900996412421887  1.0000
  C   C10       1.0  0.7950558650905402  0.00644960457618287  0.7109900360925913  1.0000
  C   C11       1.0  0.3048183485364018  0.7231577111743125  0.2939394881487599  1.0000
  C   C12       1.0  0.6951816515201462  0.22315771072886392  0.7060605120680501  1.0000
  C   C13       1.0  0.31254903449873384  0.8891015949148329  0.3606115035529506  1.0000
  C   C14       1.0  0.6874509655578143  0.3891015944693842  0.6393884966638594  1.0000
  C   C15       1.0  0.31444832540496964  0.4495425391377556  0.17237353524230842  1.0000
  C   C16       1.0  0.6855516746515785  0.9495425395832042  0.8276264649745015  1.0000
  C   C17       1.0  0.7468193154147036  0.36775712279085865  0.04628524535713867  1.0000
  C   C18       1.0  0.25318068463777493  0.8677571232363074  0.9537147542385971  1.0000
  C   C19       1.0  0.7318747115837098  0.12631596839643885  0.09435937553146309  1.0000
  C   C20       1.0  0.2681252884728383  0.6263159688418874  0.9056406246853469  1.0000
  C   C21       1.0  0.7629009167119436  0.15906820432521523  0.19042457859943873  1.0000
  C   C22       1.0  0.23709908334460444  0.6590682047706639  0.8095754216173713  1.0000
  C   C23       1.0  0.8508374526413586  0.9195883224615811  0.22202912927739638  1.0000
  C   C24       1.0  0.14916254741518942  0.419588323873647  0.7779708709394138  1.0000
  C   C25       1.0  0.9608116859154343  0.869045068127523  0.1557657771664539  1.0000
  C   C26       1.0  0.03918831291900871  0.3690450676820745  0.844234222963463  1.0000
  N   N1        1.0  0.21206808800282945  0.3573847241704296  0.2197636882700483  1.0000
  N   N2        1.0  0.7879319120537186  0.8573847227583636  0.7802363119467618  1.0000
  N   N3        1.0  0.34825043907684244  0.35034425906330846  0.1002531087409858  1.0000
  N   N4        1.0  0.651749560975636  0.8503442595087571  0.8997468908547499  1.0000
  N   N5        1.0  0.8573407098806618  0.9414035589227479  0.07500826064382672  1.0000
  N   N6        1.0  0.1426592901718167  0.4414035584772992  0.924991738951909  1.0000
  O   O1        1.0  0.2176718798207643  0.004690449098824241  0.48995391891430756  1.0000
  O   O2        1.0  0.7823281202357838  0.5046904495442729  0.5100460813025024  1.0000
  O   O3        1.0  0.6366463025651181  0.5311303902328681  0.051689494898582954  1.0000
  O   O4        1.0  0.3633536974873603  0.031130389787419516  0.9483105046971528  1.0000
  O   O5        1.0  0.8672458313332966  0.3955364708123836  0.007141014669278504  1.0000
  O   O6        1.0  0.1327541687232514  0.8955364712578322  0.9928589855475315  1.0000
  F   F1        1.0  0.4770732585941033  0.9233884573873962  0.5499829413804781  1.0000
  F   F2        1.0  0.5229267414624448  0.42338845694194754  0.450017058836332  1.0000
  F   F3        1.0  0.2760775980452751  0.7416807296416186  0.6008498032673002  1.0000
  F   F4        1.0  0.7239224020072034  0.24168073105368446  0.3991501963284355  1.0000
  F   F5        1.0  0.3090601187059586  0.14561982098433834  0.614877635203879  1.0000
  F   F6        1.0  0.6909398813505894  0.645619821429787  0.38512236501293107  1.0000
  S   S1        1.0  0.40935717234915864  0.7343354315301742  0.2077692270940087  1.0000
  S   S2        1.0  0.5906428277073893  0.2343354310847255  0.7922307731228013  1.0000
