data_image0
_chemical_formula_structural       H32C16N4I4
_chemical_formula_sum              "H32 C16 N4 I4"
_cell_length_a       6.3795353978307014
_cell_length_b       8.93586689618582
_cell_length_c       10.3451559322406
_cell_angle_alpha    91.7088777496931
_cell_angle_beta     103.02856961278971
_cell_angle_gamma    95.55662998822235

_space_group_name_H-M_alt    "P 1"
_space_group_IT_number       1

loop_
  _space_group_symop_operation_xyz
  'x, y, z'

loop_
  _atom_site_type_symbol
  _atom_site_label
  _atom_site_symmetry_multiplicity
  _atom_site_fract_x
  _atom_site_fract_y
  _atom_site_fract_z
  _atom_site_occupancy
  H   H1        1.0  0.4914346498770425  0.07481651829875925  0.701974412300414  1.0000
  H   H2        1.0  0.508565350574003  0.925183481611704  0.2980255883881439  1.0000
  H   H3        1.0  0.6823261678604553  0.2273138556817123  0.7847213564337022  1.0000
  H   H4        1.0  0.31767383220970435  0.7726861441655951  0.21527864326128915  1.0000
  H   H5        1.0  0.2144620589375413  0.25148860620682867  0.6255612168506317  1.0000
  H   H6        1.0  0.7855379411326182  0.7485113936404788  0.37443878284435966  1.0000
  H   H7        1.0  0.4075276072822507  0.4095265700903347  0.6915903241247487  1.0000
  H   H8        1.0  0.592472392787909  0.5904734297569728  0.3084096755702426  1.0000
  H   H9        1.0  0.8958479016082479  0.013491665414599957  0.30491817236610713  1.0000
  H   H10       1.0  0.10415209899029937  0.9865083356200555  0.6950818283196531  1.0000
  H   H11       1.0  0.11949586387248508  0.1183570197600202  0.4145013700914404  1.0000
  H   H12       1.0  0.8805041361976744  0.8816429800872873  0.5854986296035509  1.0000
  H   H13       1.0  0.30873647314779595  0.12735599008187581  0.24452792580769867  1.0000
  H   H14       1.0  0.6912635269223636  0.8726440097654315  0.7554720738872928  1.0000
  H   H15       1.0  0.0820732800117852  0.025280728702756376  0.133143735433192  1.0000
  H   H16       1.0  0.9179267200583745  0.9747192711445509  0.8668562642617995  1.0000
  H   H17       1.0  0.6344589638670822  0.3409073658386889  0.1821171067427304  1.0000
  H   H18       1.0  0.3655410362030774  0.6590926340086186  0.817882892952261  1.0000
  H   H19       1.0  0.6205840425061891  0.14135912050050806  0.1690814977683325  1.0000
  H   H20       1.0  0.37941595756397045  0.8586408793467993  0.8309185019266588  1.0000
  H   H21       1.0  0.8120123625524199  0.15899808468470106  0.9997841120189178  1.0000
  H   H22       1.0  0.18798763751773961  0.8410019151626063  0.0002158876760735953  1.0000
  H   H23       1.0  0.831815022842234  0.3589539290062041  0.01671125775769454  1.0000
  H   H24       1.0  0.16818497722792564  0.6410460708411032  0.9832887419372969  1.0000
  H   H25       1.0  0.13818754650092022  0.3891616103602767  0.43249299113683815  1.0000
  H   H26       1.0  0.8618124537167411  0.6108383906112228  0.5675070085553555  1.0000
  H   H27       1.0  0.9352940575471491  0.48229859106612216  0.329456185697799  1.0000
  H   H28       1.0  0.06470594267051222  0.5177014099053775  0.6705438139943947  1.0000
  H   H29       1.0  0.14058249334243028  0.49479947669083524  0.1669658621485712  1.0000
  H   H30       1.0  0.859417506875231  0.5052005242806644  0.8330341375436225  1.0000
  H   H31       1.0  0.337277106777808  0.3917280218230685  0.2668716137018385  1.0000
  H   H32       1.0  0.6627228936732373  0.6082719780873949  0.7331283869867194  1.0000
  C   C1        1.0  0.5421335793828862  0.19541103529255424  0.7026588694179848  1.0000
  C   C2        1.0  0.4578664210681592  0.804588964617909  0.2973411312705732  1.0000
  C   C3        1.0  0.36130873698464083  0.290032661695808  0.7011160862086945  1.0000
  C   C4        1.0  0.6386912630855186  0.7099673381514995  0.29888391348629684  1.0000
  C   C5        1.0  0.00845217599259347  0.1166295836000153  0.3162548853902327  1.0000
  C   C6        1.0  0.9915478246059538  0.88337041743464  0.6837451152955276  1.0000
  C   C7        1.0  0.13379325548358426  0.12364670933398399  0.20344612031351667  1.0000
  C   C8        1.0  0.8662067445865753  0.8763532905133236  0.7965538793814747  1.0000
  C   C9        1.0  0.7311970818743525  0.24563414674655343  0.18230967310472856  1.0000
  C   C10       1.0  0.2688029181958071  0.754365853100754  0.8176903265902629  1.0000
  C   C11       1.0  0.8595291388924733  0.25639222681551666  0.07131927257351724  1.0000
  C   C12       1.0  0.14047086117768628  0.7436077730317908  0.9286807271214741  1.0000
  C   C13       1.0  0.03169538799252975  0.38662021949266745  0.33280998891663544  1.0000
  C   C14       1.0  0.9683046105119258  0.613379780352174  0.6671900107841311  1.0000
  C   C15       1.0  0.1637271149213089  0.3929766606273896  0.22323643949899785  1.0000
  C   C16       1.0  0.8362728852963524  0.60702334034411  0.7767635601931958  1.0000
  N   N1        1.0  0.8828776381192683  0.24694262002071313  0.3127402710121739  1.0000
  N   N2        1.0  0.11712236195089133  0.7530573798265944  0.6872597286828175  1.0000
  N   N3        1.0  0.09322293951740956  0.26048789715343695  0.12976259295034037  1.0000
  N   N4        1.0  0.9067770591345478  0.7395121038155965  0.8702374067476285  1.0000
  I   I1        1.0  0.6740273378854277  0.22241992901976446  0.5236978798007595  1.0000
  I   I2        1.0  0.3259726621847318  0.7775800708275429  0.4763021198942318  1.0000
  I   I3        1.0  0.25758939025284033  0.2795026650842638  0.891298418220113  1.0000
  I   I4        1.0  0.742410610198205  0.7204973348261995  0.10870158246844498  1.0000
