data_image0
_chemical_formula_structural       H44C40N20O10
_chemical_formula_sum              "H44 C40 N20 O10"
_cell_length_a       8.016935913324234
_cell_length_b       9.561951018807688
_cell_length_c       14.191342088369222
_cell_angle_alpha    96.98971387264339
_cell_angle_beta     99.42758280492569
_cell_angle_gamma    103.73076897862114

_space_group_name_H-M_alt    "P 1"
_space_group_IT_number       1

loop_
  _space_group_symop_operation_xyz
  'x, y, z'

loop_
  _atom_site_type_symbol
  _atom_site_label
  _atom_site_symmetry_multiplicity
  _atom_site_fract_x
  _atom_site_fract_y
  _atom_site_fract_z
  _atom_site_occupancy
  H   H1        1.0  0.8913506618491637  0.1936600041687684  0.5109888678078773  1.0000
  H   H2        1.0  0.10864933848831426  0.8063399956334684  0.48901113229430754  1.0000
  H   H3        1.0  0.47459683962789145  0.5189880098424527  0.38740099639093  1.0000
  H   H4        1.0  0.5254031607095865  0.48101198995978384  0.6125990037112549  1.0000
  H   H5        1.0  0.4211107081711982  0.5016638091248328  0.25824904600785836  1.0000
  H   H6        1.0  0.5788892909015227  0.4983361906763892  0.7417509539771967  1.0000
  H   H7        1.0  0.6288375006507074  0.6142682759096081  0.3243856198935327  1.0000
  H   H8        1.0  0.37116249842201354  0.38573172389161414  0.6756143800915225  1.0000
  H   H9        1.0  0.6747037594367603  0.15638534019731715  0.06330063625939499  1.0000
  H   H10       1.0  0.32529624124389794  0.8436146606969348  0.9366993639630361  1.0000
  H   H11       1.0  0.4555528295127194  0.0733023249252539  0.07359063994909153  1.0000
  H   H12       1.0  0.5444471708247586  0.9266976748769828  0.9264093601530934  1.0000
  H   H13       1.0  0.630335376034562  0.9952265692853746  0.11686048785718968  1.0000
  H   H14       1.0  0.36966462430291597  0.004773430516862086  0.8831395122449952  1.0000
  H   H15       1.0  0.913835292419182  0.9568229877801742  0.40801659440619586  1.0000
  H   H16       1.0  0.08616470791780964  0.043177012020438124  0.5919834049911566  1.0000
  H   H17       1.0  0.8503941700786877  0.4465405572064979  0.5819833388937177  1.0000
  H   H18       1.0  0.14960583025879035  0.5534594425957386  0.41801666120846726  1.0000
  H   H19       1.0  0.3058698640438817  0.4804739110506239  0.05391527257561834  1.0000
  H   H20       1.0  0.6941301362935963  0.5195260887516128  0.9460847275265666  1.0000
  H   H21       1.0  0.3266147687734222  0.2558099926188058  0.955191400024923  1.0000
  H   H22       1.0  0.6733852315640558  0.7441900071834308  0.04480860007726195  1.0000
  H   H23       1.0  0.17912599948151478  0.19561432891018835  0.7779074905927407  1.0000
  H   H24       1.0  0.8208740011991434  0.8043856719840636  0.22209250962969054  1.0000
  H   H25       1.0  0.13864553786409947  0.6420632202627571  0.9750798036709157  1.0000
  H   H26       1.0  0.8613544628165588  0.35793678063149487  0.02492019655151547  1.0000
  H   H27       1.0  0.9252239512123476  0.5511345860616939  0.6995381845147659  1.0000
  H   H28       1.0  0.07477604786037347  0.4488654137395284  0.3004618154702892  1.0000
  H   H29       1.0  0.2755532104758332  0.33974603667411185  0.4906427564443415  1.0000
  H   H30       1.0  0.7244467885968878  0.6602539631271102  0.5093572435407137  1.0000
  H   H31       1.0  0.2659434394998229  0.6482163692314385  0.18691458324832683  1.0000
  H   H32       1.0  0.7340565608371689  0.3517836305691736  0.8130854161490256  1.0000
  H   H33       1.0  0.4887427818294672  0.7513809285363616  0.2317944368163719  1.0000
  H   H34       1.0  0.5112572185080108  0.24861907126587499  0.768205563285813  1.0000
  H   H35       1.0  0.3774150630930936  0.7598545219183361  0.11264438889899647  1.0000
  H   H36       1.0  0.6225849363228079  0.24014547897490135  0.887355611206305  1.0000
  H   H37       1.0  0.4210851130782541  0.13039216773507206  0.5114204358584391  1.0000
  H   H38       1.0  0.578914887259224  0.8696078320671646  0.48857956424374577  1.0000
  H   H39       1.0  0.017004682529495097  0.20989574599253819  0.17225032487163267  1.0000
  H   H40       1.0  0.9829953181511631  0.7901042549017138  0.8277496753507985  1.0000
  H   H41       1.0  0.95716534481509  0.047591826699995086  0.08200120657398678  1.0000
  H   H42       1.0  0.04283465552238803  0.9524081731022416  0.9179987935281981  1.0000
  H   H43       1.0  0.15116985258687526  0.1865866785544044  0.08600093741342173  1.0000
  H   H44       1.0  0.8488301477506027  0.8134133212478323  0.9139990626887632  1.0000
  C   C1        1.0  0.7489037846796571  0.22896625239180507  0.3756596613573214  1.0000
  C   C2        1.0  0.25109621565782086  0.7710337474104315  0.6243403387448636  1.0000
  C   C3        1.0  0.6928445969068214  0.35784216681241093  0.3925515550928804  1.0000
  C   C4        1.0  0.3071554037738368  0.642157834081841  0.6074484451295508  1.0000
  C   C5        1.0  0.5600302482873015  0.30486894391223673  0.21486017517479625  1.0000
  C   C6        1.0  0.43996975078541956  0.6951310558889854  0.7851398248102589  1.0000
  C   C7        1.0  0.5257307924920467  0.5138999386208628  0.3205949311976615  1.0000
  C   C8        1.0  0.4742692069238547  0.4861000622723747  0.67940506890764  1.0000
  C   C9        1.0  0.5937923024495125  0.09688243652234753  0.10831278582534966  1.0000
  C   C10       1.0  0.40620769696638875  0.9031175643708897  0.891687214279952  1.0000
  C   C11       1.0  0.7139997728964198  0.14433457182518517  0.28416419366023854  1.0000
  C   C12       1.0  0.28600022617630116  0.855665427976037  0.7158358063248167  1.0000
  C   C13       1.0  0.8501565155583891  0.03619693911634754  0.3807577631617637  1.0000
  C   C14       1.0  0.14984348477908882  0.9638030606858891  0.6192422369404212  1.0000
  C   C15       1.0  0.24419872284510194  0.4532640440881322  0.9774512202443904  1.0000
  C   C16       1.0  0.755801277492376  0.5467359557141045  0.022548779857794608  1.0000
  C   C17       1.0  0.25552838722325294  0.32695736383268575  0.9216889195197885  1.0000
  C   C18       1.0  0.744471613114225  0.6730426359695509  0.0783110805823965  1.0000
  C   C19       1.0  0.17528686153760567  0.29421244728212503  0.8239004424412363  1.0000
  C   C20       1.0  0.8247131387993861  0.7057875525184871  0.17609955695611618  1.0000
  C   C21       1.0  0.08776312126248897  0.3913109582123376  0.7861264253885244  1.0000
  C   C22       1.0  0.9122368790745027  0.6086890415882746  0.21387357400882814  1.0000
  C   C23       1.0  0.9988428689260277  0.3612227705429671  0.6811869512805236  1.0000
  C   C24       1.0  0.001157131411450313  0.6387772292592696  0.3188130488216613  1.0000
  C   C25       1.0  0.15206551677322483  0.5429769282348098  0.9332586182945632  1.0000
  C   C26       1.0  0.8479344835642532  0.4570230715674269  0.06674138180762162  1.0000
  C   C27       1.0  0.20988203345329065  0.9373292976241259  0.16127602498152305  1.0000
  C   C28       1.0  0.7901179659621245  0.06267070326748737  0.8387239744189462  1.0000
  C   C29       1.0  0.21877853050315993  0.11879338255016504  0.2940668103586849  1.0000
  C   C30       1.0  0.7812214698343181  0.8812066172520717  0.7059331897435001  1.0000
  C   C31       1.0  0.2692481405195483  0.25145181509556175  0.4330900397493747  1.0000
  C   C32       1.0  0.7307518598179297  0.7485481847066748  0.56690996035281  1.0000
  C   C33       1.0  0.36287839179363174  0.9240737901930963  0.3285319142755098  1.0000
  C   C34       1.0  0.6371216072790892  0.0759262096081257  0.6714680857095454  1.0000
  C   C35       1.0  0.36390911014449323  0.7503359552412254  0.18707723130055878  1.0000
  C   C36       1.0  0.6360908901929847  0.2496640445610111  0.8129227688016262  1.0000
  C   C37       1.0  0.31408100502298975  0.053124185896907594  0.35818588936750245  1.0000
  C   C38       1.0  0.6859189953144882  0.946875813905329  0.6418141107346825  1.0000
  C   C39       1.0  0.06549877412962313  0.13017653211764316  0.1300879241458653  1.0000
  C   C40       1.0  0.9345012265510351  0.8698234687766088  0.8699120760765658  1.0000
  N   N1        1.0  0.5958104798629393  0.38640485932598684  0.30873221371480775  1.0000
  N   N2        1.0  0.40418952047453865  0.6135951404762497  0.6912677863873772  1.0000
  N   N3        1.0  0.6232887515376464  0.18205298221652302  0.20479141321500904  1.0000
  N   N4        1.0  0.37671124879983153  0.8179470175857135  0.7952085868871759  1.0000
  N   N5        1.0  0.8363539515605007  0.15631058388922467  0.4368522426154433  1.0000
  N   N6        1.0  0.1636460487769773  0.843689415913012  0.5631477574867416  1.0000
  N   N7        1.0  0.7767682336238878  0.02433962021359058  0.28690971391743236  1.0000
  N   N8        1.0  0.22323176671359024  0.975660379588646  0.7130902861847526  1.0000
  N   N9        1.0  0.9205822861895776  0.4608039789862122  0.6518945577201934  1.0000
  N   N10       1.0  0.0794177141479003  0.5391960208160246  0.34810544238199137  1.0000
  N   N11       1.0  0.07534669457044303  0.5138862885275006  0.8393284803353849  1.0000
  N   N12       1.0  0.9246533057665487  0.4861137112731114  0.16067151906196767  1.0000
  N   N13       1.0  0.1639538449151775  0.060759712414592555  0.19753478393910753  1.0000
  N   N14       1.0  0.8360461554223005  0.9392402873876441  0.8024652161630773  1.0000
  N   N15       1.0  0.3090534742583301  0.8758047242671188  0.22765292646323812  1.0000
  N   N16       1.0  0.6909465251575712  0.12419527662611882  0.7723470736420635  1.0000
  N   N17       1.0  0.19094519587807313  0.2421511245870073  0.3403274619268677  1.0000
  N   N18       1.0  0.8090548044594049  0.7578488752152293  0.6596725381753171  1.0000
  N   N19       1.0  0.34382504386079116  0.14062104598344524  0.44737436306346196  1.0000
  N   N20       1.0  0.6561749564766867  0.8593789538187913  0.552625637038723  1.0000
  O   O1        1.0  0.4753476358065385  0.339327700482368  0.14462696612413367  1.0000
  O   O2        1.0  0.5246523645309394  0.6606722993198686  0.8553730339780512  1.0000
  O   O3        1.0  0.7190345236407102  0.44207034609254653  0.4712617008702881  1.0000
  O   O4        1.0  0.2809654766967678  0.55792965370969  0.5287382992318967  1.0000
  O   O5        1.0  0.0005455375080049534  0.2470500415864439  0.626704538073644  1.0000
  O   O6        1.0  0.999454462829473  0.7529499582157927  0.3732954620285408  1.0000
  O   O7        1.0  0.16854381870440377  0.8846855421299415  0.07389445338894449  1.0000
  O   O8        1.0  0.8314561816330742  0.11531445767229506  0.9261055467132405  1.0000
  O   O9        1.0  0.44484141212914063  0.8553106148218148  0.3799257548801476  1.0000
  O   O10       1.0  0.5551585882078511  0.14468938497879738  0.6200742445172049  1.0000
