data_image0
_chemical_formula_structural       H48C24S12I24
_chemical_formula_sum              "H48 C24 S12 I24"
_cell_length_a       13.641660242782494
_cell_length_b       9.6856934832769
_cell_length_c       15.965508256854369
_cell_angle_alpha    90.0
_cell_angle_beta     112.6581708815414
_cell_angle_gamma    90.0

_space_group_name_H-M_alt    "P 1"
_space_group_IT_number       1

loop_
  _space_group_symop_operation_xyz
  'x, y, z'

loop_
  _atom_site_type_symbol
  _atom_site_label
  _atom_site_symmetry_multiplicity
  _atom_site_fract_x
  _atom_site_fract_y
  _atom_site_fract_z
  _atom_site_occupancy
  H   H1        1.0  0.09666424161611765  0.8572317381647035  0.4090308098125122  1.0000
  H   H2        1.0  0.9033357590354508  0.3572317383338655  0.09096919072179203  1.0000
  H   H3        1.0  0.9033357582884237  0.1427682614969726  0.5909691903086134  1.0000
  H   H4        1.0  0.09666424159995397  0.6427682613278107  0.9090308093945273  1.0000
  H   H5        1.0  0.12800997473338335  0.8887903251185194  0.3130936903256401  1.0000
  H   H6        1.0  0.871990025918185  0.3887903242552306  0.1869063102086641  1.0000
  H   H7        1.0  0.8719900259020213  0.11120967557560753  0.6869063097906791  1.0000
  H   H8        1.0  0.12800997398635633  0.6112096754064457  0.8130936899124613  1.0000
  H   H9        1.0  0.24853916625597106  0.02954181035090886  0.43042312891762646  1.0000
  H   H10       1.0  0.751460833664734  0.529541810181747  0.06957687162148397  1.0000
  H   H11       1.0  0.7514608336485703  0.9704581893107673  0.5695768712034991  1.0000
  H   H12       1.0  0.24853916623980735  0.47045818947992923  0.9304231284996415  1.0000
  H   H13       1.0  0.327699091442801  0.8905436791792606  0.41972918359460665  1.0000
  H   H14       1.0  0.6723009081667086  0.3905436793484226  0.08027081626578543  1.0000
  H   H15       1.0  0.672300908150545  0.10945632048241552  0.5802708158478005  1.0000
  H   H16       1.0  0.32769909173783274  0.6094563203132536  0.91972918385534  1.0000
  H   H17       1.0  0.4697380859506679  0.7802485999632525  0.6298766845506991  1.0000
  H   H18       1.0  0.5302619139377097  0.28024860013241437  0.8701233151524413  1.0000
  H   H19       1.0  0.5302619139538735  0.21975139969842372  0.3701233155704264  1.0000
  H   H20       1.0  0.46973808565563624  0.7197513995292618  0.12987668428996574  1.0000
  H   H21       1.0  0.395247038381173  0.7036032424282709  0.5235041483159945  1.0000
  H   H22       1.0  0.6047529618184001  0.20360324259743273  0.9764958520658644  1.0000
  H   H23       1.0  0.6047529615233684  0.29639675723340536  0.4764958518051311  1.0000
  H   H24       1.0  0.39524703808614126  0.7963967580966941  0.023504148055261017  1.0000
  H   H25       1.0  0.32037208726427896  0.6746018569843691  0.6818488093026728  1.0000
  H   H26       1.0  0.6796279129352941  0.17460185715353108  0.8181511910791861  1.0000
  H   H27       1.0  0.6796279126402623  0.32539814267730705  0.3181511908184527  1.0000
  H   H28       1.0  0.32037208696924735  0.8253981425081451  0.1818488090419394  1.0000
  H   H29       1.0  0.4266796936021605  0.5714912690100203  0.6798782578550592  1.0000
  H   H30       1.0  0.5733203062862171  0.07149126917918222  0.8201217418480814  1.0000
  H   H31       1.0  0.5733203059911854  0.4285087306516559  0.320121741587348  1.0000
  H   H32       1.0  0.4266796936183242  0.9285087304824939  0.17987825827304407  1.0000
  H   H33       1.0  0.0879084197656998  0.5302236797878215  0.5473095568266416  1.0000
  H   H34       1.0  0.9120915804338732  0.030223679956983315  0.9526904435552171  1.0000
  H   H35       1.0  0.9120915801388415  0.46977631987385476  0.4526904432944839  1.0000
  H   H36       1.0  0.08790841947066809  0.9697763197046929  0.047309556565908226  1.0000
  H   H37       1.0  0.14935658748165548  0.6908335568901575  0.5453772351728762  1.0000
  H   H38       1.0  0.8506434127179175  0.19083355705931934  0.9546227652089827  1.0000
  H   H39       1.0  0.8506434124228859  0.3091664427715187  0.4546227649482493  1.0000
  H   H40       1.0  0.14935658791748713  0.8091664436348075  0.04537723490733663  1.0000
  H   H41       1.0  0.01336175304287297  0.6299515796710626  0.39036425204481257  1.0000
  H   H42       1.0  0.9866382465666367  0.12995157984022446  0.10963574781557951  1.0000
  H   H43       1.0  0.9866382468616685  0.37004842102306423  0.6096357480763129  1.0000
  H   H44       1.0  0.013361753337904686  0.8700484208539024  0.890364252305546  1.0000
  H   H45       1.0  0.08270715058748404  0.47266681398750165  0.3918411166379735  1.0000
  H   H46       1.0  0.917292849752889  0.9726668138183397  0.10815888321761244  1.0000
  H   H47       1.0  0.9172928500479206  0.5273331856741745  0.6081588834783458  1.0000
  H   H48       1.0  0.08270714984045702  0.027333185843336424  0.8918411162247948  1.0000
  C   C1        1.0  0.15866525463639805  0.8441316095864997  0.3816841626452927  1.0000
  C   C2        1.0  0.8413347457039749  0.3441316097556615  0.11831583721029314  1.0000
  C   C3        1.0  0.8413347459990066  0.1558683911076272  0.6183158374710265  1.0000
  C   C4        1.0  0.15866525388937103  0.6558683909384653  0.881684162232114  1.0000
  C   C5        1.0  0.26116606809466847  0.917382017647107  0.43928643705174764  1.0000
  C   C6        1.0  0.7388339315148412  0.417382017816269  0.060713562808644435  1.0000
  C   C7        1.0  0.7388339314986775  0.08261798201456909  0.5607135623906594  1.0000
  C   C8        1.0  0.26116606838970013  0.5826179818454071  0.939286437312481  1.0000
  C   C9        1.0  0.3905491906521202  0.7420730319836945  0.586520560993718  1.0000
  C   C10       1.0  0.6094508092362576  0.24207303215285633  0.9134794387094226  1.0000
  C   C11       1.0  0.6094508092524212  0.2579269676779818  0.41347943912740753  1.0000
  C   C12       1.0  0.39054919066828386  0.7579269675088198  0.08652056141170283  1.0000
  C   C13       1.0  0.35655573525295925  0.6308440681660707  0.6370621858821716  1.0000
  C   C14       1.0  0.6434442646354183  0.13084406833523263  0.8629378138209689  1.0000
  C   C15       1.0  0.6434442643403868  0.3691559314956055  0.36293781356023563  1.0000
  C   C16       1.0  0.3565557359999863  0.8691559313264435  0.13706218629535027  1.0000
  C   C17       1.0  0.13968038271490646  0.5844353302913797  0.5199227620951873  1.0000
  C   C18       1.0  0.8603196174846666  0.08443533046054168  0.9800772382866716  1.0000
  C   C19       1.0  0.860319617189635  0.41556466937029646  0.48007723802593816  1.0000
  C   C20       1.0  0.13968038315073814  0.9155646692011344  0.01992276182964776  1.0000
  C   C21       1.0  0.0917398915681291  0.5797038786840039  0.41666015487564945  1.0000
  C   C22       1.0  0.908260108772244  0.07970387885316585  0.08333984497993642  1.0000
  C   C23       1.0  0.9082601083364122  0.4202961209776722  0.583339845245476  1.0000
  C   C24       1.0  0.09173989186316077  0.9202961208085104  0.9166601551363829  1.0000
  S   S1        1.0  0.17657668690328232  0.6597117956532927  0.3667695238434025  1.0000
  S   S2        1.0  0.8234233127062274  0.15971179582245465  0.1332304760169896  1.0000
  S   S3        1.0  0.823423313001259  0.34028820400838344  0.6332304762777229  1.0000
  S   S4        1.0  0.17657668719831396  0.8402882048716722  0.8667695241041358  1.0000
  S   S5        1.0  0.3011904792906908  0.8909054581273608  0.5606712925043564  1.0000
  S   S6        1.0  0.6988095205976868  0.3909054582965227  0.9393287071987839  1.0000
  S   S7        1.0  0.6988095206138505  0.10909454153431543  0.4393287076167689  1.0000
  S   S8        1.0  0.3011904797265225  0.6090945413651535  0.060671292238817  1.0000
  S   S9        1.0  0.26902449633265235  0.4986374789103913  0.5666509262513979  1.0000
  S   S10       1.0  0.7309755035557253  0.99863747977368  0.9333490734517425  1.0000
  S   S11       1.0  0.7309755032606936  0.5013625207512848  0.43334907319100924  1.0000
  S   S12       1.0  0.2690244963488161  0.0013625209204467985  0.06665092666938292  1.0000
  I   I1        1.0  0.047223826440137395  0.6531680577052118  0.1815463079531219  1.0000
  I   I2        1.0  0.9527761739002355  0.15316805684192306  0.318453691902464  1.0000
  I   I3        1.0  0.9527761731532085  0.34683194298891507  0.8184536914892853  1.0000
  I   I4        1.0  0.04722382673516906  0.8468319428197533  0.6815463082138552  1.0000
  I   I5        1.0  0.9118532996352023  0.6825014627412627  0.9963630051327602  1.0000
  I   I6        1.0  0.08814670056437082  0.18250146291042454  0.5036369952490987  1.0000
  I   I7        1.0  0.08814670100020244  0.3174985369204136  0.0036369949835591076  1.0000
  I   I8        1.0  0.9118532993401706  0.8174985377837022  0.4963630048720268  1.0000
  I   I9        1.0  0.44009995954669495  0.11340088470654314  0.6117431518903313  1.0000
  I   I10       1.0  0.559900040652878  0.6134008845373812  0.8882568484915274  1.0000
  I   I11       1.0  0.5599000403578464  0.8865991159875837  0.3882568482307941  1.0000
  I   I12       1.0  0.44009995998252666  0.38659911512429496  0.11174315162479181  1.0000
  I   I13       1.0  0.5658138848145702  0.3572389778774378  0.6494707285433232  1.0000
  I   I14       1.0  0.4341861153850028  0.8572389777082758  0.8505292718385357  1.0000
  I   I15       1.0  0.4341861150899712  0.6427610217842384  0.35052927157780234  1.0000
  I   I16       1.0  0.5658138845195386  0.14276102195340032  0.1494707282825898  1.0000
  I   I17       1.0  0.2656831587346688  0.34550557229360235  0.7138677209683595  1.0000
  I   I18       1.0  0.7343168411537089  0.8455055721244406  0.786132278734781  1.0000
  I   I19       1.0  0.7343168411698726  0.654494427368074  0.2861322791527659  1.0000
  I   I20       1.0  0.2656831587508325  0.1544944275372358  0.21386772138634447  1.0000
  I   I21       1.0  0.2847260557486094  0.18045721899188777  0.8652997499501967  1.0000
  I   I22       1.0  0.7152739444509637  0.6804572188227258  0.6347002504316622  1.0000
  I   I23       1.0  0.7152739448867953  0.8195427806697885  0.13470025016612266  1.0000
  I   I24       1.0  0.28472605545357765  0.3195427808389503  0.36529974968946316  1.0000
