data_image0
_chemical_formula_structural       H52C56N4O16F6Cl2
_chemical_formula_sum              "H52 C56 N4 O16 F6 Cl2"
_cell_length_a       5.420167698852704
_cell_length_b       9.206747093789414
_cell_length_c       27.15216661914608
_cell_angle_alpha    90.0
_cell_angle_beta     90.92402027025669
_cell_angle_gamma    90.0

_space_group_name_H-M_alt    "P 1"
_space_group_IT_number       1

loop_
  _space_group_symop_operation_xyz
  'x, y, z'

loop_
  _atom_site_type_symbol
  _atom_site_label
  _atom_site_symmetry_multiplicity
  _atom_site_fract_x
  _atom_site_fract_y
  _atom_site_fract_z
  _atom_site_occupancy
  H   H1        1.0  0.8145302213450419  0.469895946519301  0.9155368343735028  1.0000
  H   H2        1.0  0.18546977722785343  0.9698959457704255  0.08446316554872242  1.0000
  H   H3        1.0  0.10227415924195533  0.3955498476173628  0.850087825426206  1.0000
  H   H4        1.0  0.8977258411760313  0.8955498479546473  0.14991217449793912  1.0000
  H   H5        1.0  0.0005757703585844997  0.7987980733131037  0.7360271091515861  1.0000
  H   H6        1.0  0.9994242300594022  0.2987980740619791  0.2639728907725591  1.0000
  H   H7        1.0  0.7814877849659353  0.679527669899857  0.7117156646778398  1.0000
  H   H8        1.0  0.21851221360696002  0.17952766956257243  0.28828433524438546  1.0000
  H   H9        1.0  0.5019496775812855  0.869691186086918  0.705983362570306  1.0000
  H   H10       1.0  0.4980503228367011  0.36969118574963344  0.29401663735383926  1.0000
  H   H11       1.0  0.727512723506278  0.985063474385847  0.7307949077043233  1.0000
  H   H12       1.0  0.2724872769117086  0.48506347404856254  0.26920509221982186  1.0000
  H   H13       1.0  0.36147277630326635  0.8546632040439082  0.8496742621920074  1.0000
  H   H14       1.0  0.6385272241348601  0.35466320370662363  0.1503257381004755  1.0000
  H   H15       1.0  0.14513499171643182  0.3063016189401263  0.7791738670176648  1.0000
  H   H16       1.0  0.8548650087015549  0.8063016192774107  0.22082613290648034  1.0000
  H   H17       1.0  0.42579684857322214  0.4105080656065263  0.7813750504141138  1.0000
  H   H18       1.0  0.5742031518447646  0.910508065943811  0.2186249495100314  1.0000
  H   H19       1.0  0.24967365276960787  0.1466564527346279  0.6306107618510708  1.0000
  H   H20       1.0  0.7503263476483788  0.6466564519857525  0.3693892380730744  1.0000
  H   H21       1.0  0.9663105547069303  0.22057374546216138  0.6074885005496913  1.0000
  H   H22       1.0  0.03368944571105636  0.720573744713286  0.39251149937445384  1.0000
  H   H23       1.0  0.7760609557430667  0.2039730885262171  0.7079930447505607  1.0000
  H   H24       1.0  0.22393904282982863  0.7039730888635016  0.29200695517166464  1.0000
  H   H25       1.0  0.333122557193976  0.5559009015738545  0.6780659484421145  1.0000
  H   H26       1.0  0.6668774432240107  0.055900901236570016  0.3219340514820307  1.0000
  H   H27       1.0  0.6188466770845332  0.48108944612889903  0.6987684318135402  1.0000
  H   H28       1.0  0.3811533233535933  0.9810894464661835  0.30123156847894267  1.0000
  H   H29       1.0  0.38261574553489225  0.14295674537294994  0.7346303294828984  1.0000
  H   H30       1.0  0.6173842548830945  0.6429567457102344  0.26536967044124676  1.0000
  H   H31       1.0  0.9533686388062013  0.3920968766954782  0.6773136453355919  1.0000
  H   H32       1.0  0.0466313616117854  0.8920968770327627  0.3226863545885532  1.0000
  H   H33       1.0  0.6069190107295224  0.20249200515756471  0.4558470359006079  1.0000
  H   H34       1.0  0.3930809896884644  0.7024920054948492  0.5441529640235373  1.0000
  H   H35       1.0  0.945512216638407  0.4677900702741417  0.4484407614785259  1.0000
  H   H36       1.0  0.05448778379971942  0.9677900706114263  0.551559238813957  1.0000
  H   H37       1.0  0.5838173904232977  0.4926475468257003  0.6060583273441394  1.0000
  H   H38       1.0  0.4161826099946889  0.9926475471629848  0.39394167258000573  1.0000
  H   H39       1.0  0.628520122740534  0.31351073518105926  0.6286701496821225  1.0000
  H   H40       1.0  0.3714798758323612  0.8135107344321838  0.37132985024010273  1.0000
  H   H41       1.0  0.5828529405405432  0.1997928390192048  0.8657093612148778  1.0000
  H   H42       1.0  0.4171470580323521  0.6997928382703293  0.13429063870734742  1.0000
  H   H43       1.0  0.3049310785878662  0.17788567811369277  0.012857768554417438  1.0000
  H   H44       1.0  0.6950689218502603  0.6778856784509772  0.9871422317380655  1.0000
  H   H45       1.0  0.636915586185609  0.005072499496755287  0.036493514206275855  1.0000
  H   H46       1.0  0.3630844142323777  0.5050724998340398  0.9635064857178692  1.0000
  H   H47       1.0  0.13221315039150852  0.3088055684637915  0.9535901779339649  1.0000
  H   H48       1.0  0.867786850026478  0.8088055677149161  0.04640982199018026  1.0000
  H   H49       1.0  0.07249880904572473  0.8826857507014607  0.9495169249625065  1.0000
  H   H50       1.0  0.927501191372262  0.3826857503641762  0.05048307496163868  1.0000
  H   H51       1.0  0.0971492744259993  0.04178236200921528  0.8147238765618987  1.0000
  H   H52       1.0  0.9028507260121271  0.5417823623464998  0.18527612373058425  1.0000
  C   C1        1.0  0.9682328500721459  0.5581316764382858  0.797961916390228  1.0000
  C   C2        1.0  0.031767150345840794  0.058131677187161127  0.2020380835339173  1.0000
  C   C3        1.0  0.8092544812093576  0.6767072828798294  0.7898277282420472  1.0000
  C   C4        1.0  0.19074551920862895  0.17670728254254492  0.21017227168209807  1.0000
  C   C5        1.0  0.6486754122685993  0.7158769229629448  0.8271606957146103  1.0000
  C   C6        1.0  0.35132458814938744  0.21587692371182024  0.17283930420953494  1.0000
  C   C7        1.0  0.653662998047738  0.6396692382234244  0.8716220347949338  1.0000
  C   C8        1.0  0.34633700239038845  0.13966923897229977  0.12837796549754896  1.0000
  C   C9        1.0  0.814698859560703  0.5259935578405024  0.8802397062415337  1.0000
  C   C10       1.0  0.1853011408572837  0.025993558589377918  0.11976029368261157  1.0000
  C   C11       1.0  0.9749075898246732  0.48434279497131544  0.8429756742953327  1.0000
  C   C12       1.0  0.025092410593313574  0.9843427942224401  0.15702432562881238  1.0000
  C   C13       1.0  0.8129880669711007  0.7573016396533024  0.7418731042348597  1.0000
  C   C14       1.0  0.18701193346702566  0.2573016404021779  0.2581268960576232  1.0000
  C   C15       1.0  0.6280494966881232  0.8834748556834908  0.7378076093651915  1.0000
  C   C16       1.0  0.3719505037298635  0.38347485534620623  0.26219239055895377  1.0000
  C   C17       1.0  0.4635499483931244  0.9123161953330965  0.7806156034934433  1.0000
  C   C18       1.0  0.5364500520248623  0.41231619608197184  0.2193843964307019  1.0000
  C   C19       1.0  0.30797053807290126  0.3411231521846163  0.7086270852318644  1.0000
  C   C20       1.0  0.6920294623450854  0.8411231525219008  0.2913729146922808  1.0000
  C   C21       1.0  0.25130799209838145  0.39193300557089633  0.7608960533143121  1.0000
  C   C22       1.0  0.7486920083196053  0.8919330048220209  0.23910394660983303  1.0000
  C   C23       1.0  0.13667730585830368  0.24679164495924089  0.6278880670920357  1.0000
  C   C24       1.0  0.8633226945798229  0.7467916452965254  0.37211193320044716  1.0000
  C   C25       1.0  0.4445048940766707  0.45624564433116155  0.6792119771936287  1.0000
  C   C26       1.0  0.5554951044962246  0.9562456435822861  0.3207880227285966  1.0000
  C   C27       1.0  0.07295492797068552  0.29559504049327245  0.6800129080595491  1.0000
  C   C28       1.0  0.9270450724473013  0.795595039744397  0.31998709186459623  1.0000
  C   C29       1.0  0.27219675813219646  0.3493425894330933  0.5504609052099578  1.0000
  C   C30       1.0  0.7278032422857902  0.8493425886842179  0.44953909471418735  1.0000
  C   C31       1.0  0.45071243626065477  0.27124381006236  0.5243916765297716  1.0000
  C   C32       1.0  0.5492875641573319  0.7712438103996445  0.47560832339437353  1.0000
  C   C33       1.0  0.4611391118491177  0.26392678817463555  0.47341818281572506  1.0000
  C   C34       1.0  0.5388608885688689  0.7639267885119201  0.5265818171084201  1.0000
  C   C35       1.0  0.27646992208486154  0.3348072352372261  0.4463985493804683  1.0000
  C   C36       1.0  0.7235300783331251  0.8348072355745106  0.5536014505436768  1.0000
  C   C37       1.0  0.08803890003865021  0.41077571605623425  0.46938934079390604  1.0000
  C   C38       1.0  0.9119610985543848  0.9107757153073588  0.5306106594966569  1.0000
  C   C39       1.0  0.0919804544455074  0.4166283662323587  0.5204465787811473  1.0000
  C   C40       1.0  0.9080195459724792  0.9166283665696433  0.47955342114299787  1.0000
  C   C41       1.0  0.4975115935975054  0.4050171001781285  0.6270449074960727  1.0000
  C   C42       1.0  0.5024884068204812  0.905017100515413  0.37295509242807257  1.0000
  C   C43       1.0  0.7796790717062106  0.055724225372290305  0.9157280579546878  1.0000
  C   C44       1.0  0.22032092871177597  0.5557242257095748  0.08427194196945742  1.0000
  C   C45       1.0  0.5921390369310796  0.15581763193731246  0.9029230317811813  1.0000
  C   C46       1.0  0.4078609634869071  0.655817632274597  0.09707696814296399  1.0000
  C   C47       1.0  0.41971605503922715  0.19665010687882503  0.9376038868861509  1.0000
  C   C48       1.0  0.5802839453787594  0.6966501072161095  0.06239611303799413  1.0000
  C   C49       1.0  0.43819416092124863  0.14254861751174966  0.9857802980089356  1.0000
  C   C50       1.0  0.561805839496738  0.6425486178490342  0.014219701915209517  1.0000
  C   C51       1.0  0.6225130452791894  0.04546940909046928  0.9989577522982839  1.0000
  C   C52       1.0  0.3774869532937058  0.5454694094277538  0.0010422476239414658  1.0000
  C   C53       1.0  0.7926330456118229  0.9988463478271736  0.964240735769527  1.0000
  C   C54       1.0  0.2073669529610723  0.49884634748988904  0.03575926415269829  1.0000
  C   C55       1.0  0.9648613419786437  0.010968540676882618  0.8801456328056322  1.0000
  C   C56       1.0  0.035138658439343086  0.5109685399280072  0.11985436711851302  1.0000
  N   N1        1.0  0.48021799081876154  0.8302922565513505  0.8211417032002462  1.0000
  N   N2        1.0  0.519782009599225  0.33029225621406594  0.17885829672389894  1.0000
  N   N3        1.0  0.26563103797709764  0.3639039267473804  0.6021928475769014  1.0000
  N   N4        1.0  0.734368962440889  0.863903925998505  0.39780715234724384  1.0000
  O   O1        1.0  0.3066947468022907  0.014093856242399783  0.7774986944158597  1.0000
  O   O2        1.0  0.693305253615696  0.5140938565796843  0.22250130550828542  1.0000
  O   O3        1.0  0.11041749958390658  0.5234964804508664  0.7584593877801423  1.0000
  O   O4        1.0  0.8895825008340802  0.023496481199741754  0.24154061214400288  1.0000
  O   O5        1.0  0.9542350683198705  0.18079163607337734  0.7053599080782037  1.0000
  O   O6        1.0  0.04576493211825591  0.6807916353245019  0.29464009221427917  1.0000
  O   O7        1.0  0.4667376549176412  0.21735641694229993  0.714074900168968  1.0000
  O   O8        1.0  0.533262343655254  0.7173564172795844  0.2859250997532573  1.0000
  O   O9        1.0  0.12821808536856721  0.9185753604228895  0.8911908043267002  1.0000
  O   O10       1.0  0.871781913204328  0.41857536117176486  0.10880919559552511  1.0000
  O   O11       1.0  0.2307316557081413  0.28865550698060555  0.9242694259218868  1.0000
  O   O12       1.0  0.769268342864754  0.78865550731789  0.07573057400033847  1.0000
  O   O13       1.0  0.9666502189065408  0.9003123052648494  0.979104962268564  1.0000
  O   O14       1.0  0.03334977966635447  0.4003123049275649  0.02089503765366128  1.0000
  O   O15       1.0  0.9507461423784497  0.07235398813652226  0.8361120696708076  1.0000
  O   O16       1.0  0.04925385805967677  0.5723539884738068  0.16388793062167514  1.0000
  F   F1        1.0  0.49253713285258327  0.6833819649769899  0.9069562409431745  1.0000
  F   F2        1.0  0.5074628675855432  0.18338196463970532  0.0930437593493083  1.0000
  F   F3        1.0  0.9124503425932644  0.49472628970904825  0.5426374965538492  1.0000
  F   F4        1.0  0.08754965782472234  0.9947262889601728  0.45736250337029605  1.0000
  F   F5        1.0  0.6251375914091734  0.19630038726915183  0.5507418767820006  1.0000
  F   F6        1.0  0.374862407163722  0.6963003876064364  0.4492581231402246  1.0000
  Cl  Cl1       1.0  0.28010970283934866  0.3291030902808141  0.38285600204145975  1.0000
  Cl  Cl2       1.0  0.719890297578638  0.8291030906180986  0.6171439978826856  1.0000
