data_image0
_chemical_formula_structural       H52C52N8O8Br4
_chemical_formula_sum              "H52 C52 N8 O8 Br4"
_cell_length_a       7.425522197414296
_cell_length_b       14.893783922270485
_cell_length_c       11.170965106960892
_cell_angle_alpha    90.0
_cell_angle_beta     102.1407037809775
_cell_angle_gamma    90.0

_space_group_name_H-M_alt    "P 1"
_space_group_IT_number       1

loop_
  _space_group_symop_operation_xyz
  'x, y, z'

loop_
  _atom_site_type_symbol
  _atom_site_label
  _atom_site_symmetry_multiplicity
  _atom_site_fract_x
  _atom_site_fract_y
  _atom_site_fract_z
  _atom_site_occupancy
  H   H1        1.0  0.2393815820286175  0.9851741160323733  0.7683247575049102  1.0000
  H   H2        1.0  0.7606184178918644  0.48517411610859595  0.7316752422925032  1.0000
  H   H3        1.0  0.7606184179479447  0.01482588381518147  0.23167524273175197  1.0000
  H   H4        1.0  0.2393815817957682  0.5148258844103799  0.26832475702850184  1.0000
  H   H5        1.0  0.2910274061923575  0.2059317850995407  0.8971630081359665  1.0000
  H   H6        1.0  0.7089725940170541  0.7059317850233181  0.6028369925771042  1.0000
  H   H7        1.0  0.7089725937842047  0.7940682154194352  0.1028369921006958  1.0000
  H   H8        1.0  0.2910274059595081  0.29406821549565776  0.3971630076595579  1.0000
  H   H9        1.0  0.05459349444227391  0.04119467310671633  0.605493674705118  1.0000
  H   H10       1.0  0.945406505478208  0.5411946730304937  0.8945063250922957  1.0000
  H   H11       1.0  0.9454065055342884  0.9588053267408384  0.3945063255315444  1.0000
  H   H12       1.0  0.05459349449835426  0.4588053268170611  0.10549367514436658  1.0000
  H   H13       1.0  0.17803251220150315  0.3462079970349093  0.7762421849408514  1.0000
  H   H14       1.0  0.8219674877189788  0.8462079969586866  0.7237578148565623  1.0000
  H   H15       1.0  0.8219674877750591  0.6537920028126455  0.22375781529581087  1.0000
  H   H16       1.0  0.1780325119686538  0.1537920028888681  0.2762421844644429  1.0000
  H   H17       1.0  0.9950657729844702  0.32984466040588917  0.5625884458139689  1.0000
  H   H18       1.0  0.004934226936011605  0.8298446603296665  0.9374115539834446  1.0000
  H   H19       1.0  0.004934226992091996  0.6701553401130868  0.43741155442269325  1.0000
  H   H20       1.0  0.9950657730405507  0.1701553401893093  0.06258844625321769  1.0000
  H   H21       1.0  0.7371172284545919  0.2746867465884605  0.43510060753439217  1.0000
  H   H22       1.0  0.262882771289121  0.7746867465122379  0.06489939222586162  1.0000
  H   H23       1.0  0.26288277152197037  0.7253132532590943  0.5648993927022702  1.0000
  H   H24       1.0  0.7371172283985116  0.2253132533353169  0.9351006070951435  1.0000
  H   H25       1.0  0.7205617414574835  0.21555908872824417  0.2963523259613056  1.0000
  H   H26       1.0  0.27943825963310365  0.7155590886520216  0.2036476737994785  1.0000
  H   H27       1.0  0.27943825986595294  0.7844409111193107  0.703647674275887  1.0000
  H   H28       1.0  0.7205617403434587  0.2844409111955332  0.7963523264371838  1.0000
  H   H29       1.0  0.8548539830113207  0.046508827683757775  0.7878245464756692  1.0000
  H   H30       1.0  0.14514601719809092  0.5465088276075352  0.7121754542374016  1.0000
  H   H31       1.0  0.1451460169652416  0.953491172163797  0.21217545376099303  1.0000
  H   H32       1.0  0.8548539841253455  0.45349117224001967  0.28782454599979107  1.0000
  H   H33       1.0  0.377081364664279  0.056518265230188464  0.8805666090945512  1.0000
  H   H34       1.0  0.622918635256203  0.5565182651539659  0.6194333907028624  1.0000
  H   H35       1.0  0.6229186366591574  0.9434817346173664  0.11943339114264138  1.0000
  H   H36       1.0  0.3770813647203594  0.4434817346935889  0.3805666095337999  1.0000
  H   H37       1.0  0.3397055314834733  0.994569774699796  0.06796941571360492  1.0000
  H   H38       1.0  0.6602944682602396  0.4945697747760185  0.43203058404664885  1.0000
  H   H39       1.0  0.660294468493089  0.005430225147758875  0.9320305845230574  1.0000
  H   H40       1.0  0.3397055317163227  0.5054302250715363  0.5679694161900134  1.0000
  H   H41       1.0  0.5435103736380553  0.3152993231611297  0.15859978469123417  1.0000
  H   H42       1.0  0.4564896261056577  0.815299323084907  0.34140021506901963  1.0000
  H   H43       1.0  0.45648962633850704  0.6847006766864251  0.8414002155454282  1.0000
  H   H44       1.0  0.543510373581975  0.1847006767626477  0.6585997842519855  1.0000
  H   H45       1.0  0.551627265934167  0.552162657449533  0.2163395503535283  1.0000
  H   H46       1.0  0.4483727338095459  0.05216265752575558  0.28366044940672547  1.0000
  H   H47       1.0  0.44837273404239525  0.44783734239802186  0.783660449883134  1.0000
  H   H48       1.0  0.5516272658780866  0.9478373423217992  0.7163395499142797  1.0000
  H   H49       1.0  0.483530331070318  0.3371314748626048  0.9532737214851105  1.0000
  H   H50       1.0  0.5164696688501639  0.8371314747863822  0.5467262783123031  1.0000
  H   H51       1.0  0.5164696689062444  0.66286852498495  0.046726278751551865  1.0000
  H   H52       1.0  0.4835303311263983  0.1628685250611726  0.45327372192435916  1.0000
  C   C1        1.0  0.9097967049636301  0.16576966289327116  0.43818663792740276  1.0000
  C   C2        1.0  0.09020329506901256  0.6657696634884696  0.06181336274850819  1.0000
  C   C3        1.0  0.09020329501293221  0.8342303369542837  0.5618133623092596  1.0000
  C   C4        1.0  0.9097967049075497  0.33423033703050625  0.938186637488154  1.0000
  C   C5        1.0  0.008509185360076601  0.1843046847145033  0.5673637594978548  1.0000
  C   C6        1.0  0.9914908145604053  0.6843046846382808  0.9326362402995588  1.0000
  C   C7        1.0  0.9914908143275559  0.8156953151330516  0.43263623982315036  1.0000
  C   C8        1.0  0.00850918541615693  0.31569531520927413  0.06736375993710339  1.0000
  C   C9        1.0  0.07637765078558514  0.11014885596311971  0.6386117259764565  1.0000
  C   C10       1.0  0.9236223494238265  0.6101488558868972  0.8613882747366143  1.0000
  C   C11       1.0  0.9236223491909772  0.8898511445558561  0.3613882742602057  1.0000
  C   C12       1.0  0.0763776505527358  0.3898511439606577  0.13861172550004808  1.0000
  C   C13       1.0  0.20956178817998725  0.20452685938628984  0.8034399435516232  1.0000
  C   C14       1.0  0.7904382117404947  0.7045268593100673  0.6965600562457905  1.0000
  C   C15       1.0  0.7904382115076454  0.7954731404612649  0.196560055769382  1.0000
  C   C16       1.0  0.20956178958294175  0.2954731405374876  0.30343994399140206  1.0000
  C   C17       1.0  0.1483454996791238  0.28012662609945915  0.7354764212306582  1.0000
  C   C18       1.0  0.851654500241358  0.7801266260232365  0.7645235785667555  1.0000
  C   C19       1.0  0.8516545002974384  0.7198733737480957  0.26452357900600415  1.0000
  C   C20       1.0  0.14834549973520414  0.2198733738243183  0.23547642166990684  1.0000
  C   C21       1.0  0.0442497212952663  0.27039958354559385  0.6165082198308841  1.0000
  C   C22       1.0  0.9557502789141454  0.7703995834693712  0.8834917808821866  1.0000
  C   C23       1.0  0.9557502786812959  0.729600416301961  0.3834917804057782  1.0000
  C   C24       1.0  0.04424972240929119  0.2296004163781836  0.11650821935500594  1.0000
  C   C25       1.0  0.23677098272969738  0.04201157363807204  0.8305166197563615  1.0000
  C   C26       1.0  0.7632290171907845  0.5420115735618494  0.669483380041052  1.0000
  C   C27       1.0  0.7632290169579352  0.9579884268809039  0.16948337956464357  1.0000
  C   C28       1.0  0.23677098413265193  0.45798842695712644  0.33051662019614053  1.0000
  C   C29       1.0  0.1124430228846139  0.02226269171961056  0.9179227786088355  1.0000
  C   C30       1.0  0.8875569773247978  0.522262691643388  0.5820772221042353  1.0000
  C   C31       1.0  0.8875569770919484  0.9777373087993653  0.08207722162782677  1.0000
  C   C32       1.0  0.11244302265176453  0.4777373088755879  0.41792277813242695  1.0000
  C   C33       1.0  0.19060495770289843  0.996400598226061  0.03805587759688494  1.0000
  C   C34       1.0  0.8093950423297442  0.4964005983022835  0.46194412307902605  1.0000
  C   C35       1.0  0.809395042273664  0.003599401621493889  0.9619441226397775  1.0000
  C   C36       1.0  0.1906049576468181  0.5035994015452713  0.5380558771576363  1.0000
  C   C37       1.0  0.9205144080131415  0.025975051875267437  0.8803458391150389  1.0000
  C   C38       1.0  0.07948559190734035  0.5259750524704659  0.6196541606823746  1.0000
  C   C39       1.0  0.07948559196342073  0.9740249479722873  0.11965416112162328  1.0000
  C   C40       1.0  0.9205144091271663  0.47402494804851  0.38034583863916077  1.0000
  C   C41       1.0  0.5216113419383589  0.4370503489221887  0.09558322477927626  1.0000
  C   C42       1.0  0.47838865780535406  0.9370503488459662  0.4044167749809775  1.0000
  C   C43       1.0  0.4783886580382034  0.5629496509253661  0.9044167754573861  1.0000
  C   C44       1.0  0.5216113421712082  0.0629496510015887  0.5955832252556847  1.0000
  C   C45       1.0  0.5308269279120605  0.5290024973585697  0.12171515212046388  1.0000
  C   C46       1.0  0.4691730731785266  0.029002497434792263  0.37828484764032017  1.0000
  C   C47       1.0  0.4691730720645017  0.47099750248898514  0.8782848481161983  1.0000
  C   C48       1.0  0.5308269278559802  0.9709975024127626  0.6217151516812153  1.0000
  C   C49       1.0  0.48952239286982535  0.4087496409087114  0.9732747157397093  1.0000
  C   C50       1.0  0.5104776073395864  0.9087496408324888  0.5267252849733616  1.0000
  C   C51       1.0  0.5104776084536112  0.5912503596102645  0.02672528449748342  1.0000
  C   C52       1.0  0.48952239263697594  0.09125035901506602  0.4732747152633006  1.0000
  N   N1        1.0  0.7915421158318662  0.22898670464128024  0.3838751809643878  1.0000
  N   N2        1.0  0.2084578842007765  0.7289867045650577  0.11612481971152318  1.0000
  N   N3        1.0  0.2084578841446961  0.7710132952062746  0.6161248192722745  1.0000
  N   N4        1.0  0.7915421157757857  0.2710132952824972  0.883875180525139  1.0000
  N   N5        1.0  0.17249760890729327  0.12155345138940452  0.7539959574572742  1.0000
  N   N6        1.0  0.8275023910131887  0.621553451313182  0.7460040423401395  1.0000
  N   N7        1.0  0.827502391069269  0.8784465484581503  0.2460040427793881  1.0000
  N   N8        1.0  0.17249760896337366  0.37844654853437293  0.25399595789652285  1.0000
  O   O1        1.0  0.9472865339522948  0.09635381831034581  0.3859363142265192  1.0000
  O   O2        1.0  0.05271346608034796  0.5963538182341233  0.11406368644939176  1.0000
  O   O3        1.0  0.052713466024267575  0.90364618220863  0.614063686010143  1.0000
  O   O4        1.0  0.9472865338962144  0.4036461816134316  0.8859363137872707  1.0000
  O   O5        1.0  0.5455027629917327  0.3776193262472563  0.1917807530863045  1.0000
  O   O6        1.0  0.4544972367519802  0.8776193268424549  0.30821924667394934  1.0000
  O   O7        1.0  0.45449723698482963  0.6223806736002984  0.808219247150358  1.0000
  O   O8        1.0  0.5455027632245821  0.12238067367652106  0.691780753562713  1.0000
  Br  Br1       1.0  0.5590111546394763  0.17558582249132934  0.09190575946677511  1.0000
  Br  Br2       1.0  0.44098884510423664  0.6755858224151067  0.40809424029347874  1.0000
  Br  Br3       1.0  0.44098884533708604  0.8244141773562255  0.9080942407698872  1.0000
  Br  Br4       1.0  0.559011154583396  0.32441417743244805  0.5919057590275265  1.0000
