data_image0
_chemical_formula_structural       H52C64N4O4Br4
_chemical_formula_sum              "H52 C64 N4 O4 Br4"
_cell_length_a       10.476222564150248
_cell_length_b       10.942188511109856
_cell_length_c       11.5497842276815
_cell_angle_alpha    91.63633431308945
_cell_angle_beta     96.49875926733178
_cell_angle_gamma    92.19974979046049

_space_group_name_H-M_alt    "P 1"
_space_group_IT_number       1

loop_
  _space_group_symop_operation_xyz
  'x, y, z'

loop_
  _atom_site_type_symbol
  _atom_site_label
  _atom_site_symmetry_multiplicity
  _atom_site_fract_x
  _atom_site_fract_y
  _atom_site_fract_z
  _atom_site_occupancy
  H   H1        1.0  0.16198533210705118  0.48276824756807696  0.05764676165896965  1.0000
  H   H2        1.0  0.8380146677144469  0.5172317529940722  0.942353238725526  1.0000
  H   H3        1.0  0.5031417569224227  0.260096428799608  0.97939321678343  1.0000
  H   H4        1.0  0.49685824278788343  0.7399035717255624  0.020606782729193654  1.0000
  H   H5        1.0  0.33759537967903386  0.3824784938311284  0.008103501902175512  1.0000
  H   H6        1.0  0.6624046200312723  0.617521506694042  0.9918964976104482  1.0000
  H   H7        1.0  0.5064216838860063  0.4040959557893802  0.42766561943369363  1.0000
  H   H8        1.0  0.4935783159032424  0.5959040438584525  0.572334380957145  1.0000
  H   H9        1.0  0.4346829235795837  0.4164295521536568  0.8030848843148285  1.0000
  H   H10       1.0  0.565317076209665  0.5835704474941757  0.19691511607601006  1.0000
  H   H11       1.0  0.33007560880089526  0.22003152389991548  0.43259994518428435  1.0000
  H   H12       1.0  0.6699243909883534  0.7799684757479171  0.5674000552065542  1.0000
  H   H13       1.0  0.3744318255650808  0.9846865712316747  0.675691779221032  1.0000
  H   H14       1.0  0.625568174112976  0.015313428379179017  0.32430822029793466  1.0000
  H   H15       1.0  0.3399289651065003  0.9489167488898144  0.4968496954098483  1.0000
  H   H16       1.0  0.6600710346038058  0.05108325163535611  0.5031503041027755  1.0000
  H   H17       1.0  0.327619285642457  0.17640105655335728  0.25045286986649457  1.0000
  H   H18       1.0  0.672380714179041  0.8235989440087919  0.749547130518001  1.0000
  H   H19       1.0  0.4276954093327103  0.04874411659555724  0.881398676109569  1.0000
  H   H20       1.0  0.5723045904565385  0.9512558830522754  0.11860132428126954  1.0000
  H   H21       1.0  0.37579655689176134  0.3677479539138614  0.5918717064304202  1.0000
  H   H22       1.0  0.6242034428974874  0.6322520457339711  0.4081282939604184  1.0000
  H   H23       1.0  0.2842282954555753  0.8011359165793738  0.3499506453796498  1.0000
  H   H24       1.0  0.7157717043336734  0.19886408306845882  0.6500493550111888  1.0000
  H   H25       1.0  0.261753975958178  0.8873461214755818  0.9875561593103828  1.0000
  H   H26       1.0  0.7382460247856358  0.11265387817567782  0.012443841079594028  1.0000
  H   H27       1.0  0.2963170153173695  0.1096908998392766  0.04405644190431311  1.0000
  H   H28       1.0  0.7036829844718793  0.8903090998085561  0.9559435584865255  1.0000
  H   H29       1.0  0.2513554199702705  0.7340193165623855  0.1425223755348287  1.0000
  H   H30       1.0  0.7486445797400357  0.2659806839627849  0.8574776239777953  1.0000
  H   H31       1.0  0.9534342309859528  0.16028895223437034  0.5793797287916789  1.0000
  H   H32       1.0  0.046565768835545356  0.8397110483277787  0.42062027159281673  1.0000
  H   H33       1.0  0.2101602968375203  0.6001396242115429  0.8710765789557535  1.0000
  H   H34       1.0  0.789839702872786  0.39986037631362764  0.12892342055687017  1.0000
  H   H35       1.0  0.9710442942974322  0.2113081436969033  0.7602778762668969  1.0000
  H   H36       1.0  0.02895570541287389  0.7886918568282671  0.23972212324572678  1.0000
  H   H37       1.0  0.08807402675640708  0.34387735384307455  0.339160487137454  1.0000
  H   H38       1.0  0.9119259730328416  0.6561226458047581  0.6608395132533845  1.0000
  H   H39       1.0  0.09133637760335511  0.39681192992937425  0.5107322708435812  1.0000
  H   H40       1.0  0.9086636220747017  0.6031880696814798  0.48926772867538554  1.0000
  H   H41       1.0  0.01660082586289457  0.2863818741316741  0.9643581901393972  1.0000
  H   H42       1.0  0.9833991738151623  0.7136181254791798  0.03564180937956954  1.0000
  H   H43       1.0  0.8681670252387094  0.9407809899260567  0.2239055507805862  1.0000
  H   H44       1.0  0.1318329744715968  0.05921901059911395  0.7760944487320376  1.0000
  H   H45       1.0  0.8839420646130068  0.01584735005967773  0.42973187750285596  1.0000
  H   H46       1.0  0.1160579351762419  0.9841526495881547  0.5702681228879826  1.0000
  H   H47       1.0  0.1687920358383085  0.5395056636061935  0.6608766009396692  1.0000
  H   H48       1.0  0.8312079639831895  0.4604943369559558  0.3391233994448264  1.0000
  H   H49       1.0  0.07586914075359978  0.26782041916134874  0.13803244013313515  1.0000
  H   H50       1.0  0.9241308589244569  0.7321795804495052  0.8619675593858315  1.0000
  H   H51       1.0  0.965944036101704  0.06521693872886494  0.07658917393228093  1.0000
  H   H52       1.0  0.034055963687544634  0.9347830609189676  0.9234108264585577  1.0000
  C   C1        1.0  0.37416633256656023  0.3868873792402995  0.10025438333373256  1.0000
  C   C2        1.0  0.6258336672226885  0.6131126204075331  0.8997456170571061  1.0000
  C   C3        1.0  0.48822664918400943  0.3282240106053822  0.13676060198482468  1.0000
  C   C4        1.0  0.5117733515920537  0.671775989960194  0.8632393983988093  1.0000
  C   C5        1.0  0.35578824006483145  0.45680072000393324  0.2973004319909133  1.0000
  C   C6        1.0  0.6442117596454748  0.5431992805212372  0.7026995675217105  1.0000
  C   C7        1.0  0.30487731371978544  0.4502988739211703  0.17868383626314766  1.0000
  C   C8        1.0  0.6951226859905207  0.5497011266040002  0.8213161632494762  1.0000
  C   C9        1.0  0.4681029085525553  0.3990769925454451  0.3359839085175647  1.0000
  C   C10       1.0  0.531897091157751  0.6009230079797253  0.664016090995059  1.0000
  C   C11       1.0  0.5328377572678399  0.33433330942419187  0.25686684175322644  1.0000
  C   C12       1.0  0.4671622425214089  0.6656666902236408  0.7431331586376121  1.0000
  C   C13       1.0  0.37008196795262205  0.17112624344552033  0.6129506381161448  1.0000
  C   C14       1.0  0.6299180317254349  0.8288737561653335  0.38704936140282203  1.0000
  C   C15       1.0  0.3068277878214159  0.9938272721043997  0.31613492286043804  1.0000
  C   C16       1.0  0.6931722120000822  0.006172728457749496  0.6838650775240576  1.0000
  C   C17       1.0  0.4189458438969227  0.3215574831467524  0.7713424459963857  1.0000
  C   C18       1.0  0.581054155892326  0.6784425165010801  0.22865755439445296  1.0000
  C   C19       1.0  0.3412193407566171  0.14160258201697076  0.488831926220539  1.0000
  C   C20       1.0  0.6587806590326317  0.858397417630862  0.5111680741702996  1.0000
  C   C21       1.0  0.3848357397920102  0.08193329565094183  0.6985704736988422  1.0000
  C   C22       1.0  0.6151642598860466  0.918066703959912  0.3014295258201245  1.0000
  C   C23       1.0  0.3297569268080975  0.027055440153618514  0.4399404890775174  1.0000
  C   C24       1.0  0.6702430728699594  0.9729445594572355  0.5600595104414493  1.0000
  C   C25       1.0  0.30968201916720745  0.07960135107904204  0.2277634492144419  1.0000
  C   C26       1.0  0.6903179806220413  0.9203986485687905  0.7722365511763967  1.0000
  C   C27       1.0  0.41491423901007735  0.11733226660271397  0.8146838358407401  1.0000
  C   C28       1.0  0.5850857608114206  0.8826677339594353  0.18531616454375555  1.0000
  C   C29       1.0  0.3869698766151588  0.2939354876636851  0.6531712562957422  1.0000
  C   C30       1.0  0.6130301232063392  0.7060645128984642  0.3468287440887533  1.0000
  C   C31       1.0  0.2848095713765862  0.8692457292999515  0.2827354762186771  1.0000
  C   C32       1.0  0.7151904283014706  0.1307542703109024  0.7172645233002896  1.0000
  C   C33       1.0  0.27143651054895  0.9174595657316099  0.07902590494715102  1.0000
  C   C34       1.0  0.7285634891613562  0.08254043479356046  0.9209740945654726  1.0000
  C   C35       1.0  0.2924172844027436  0.041612962446701596  0.110909207435647  1.0000
  C   C36       1.0  0.7075827152753131  0.9583870371641523  0.8890907920833198  1.0000
  C   C37       1.0  0.26683054327604616  0.8312622611164788  0.16569020060881287  1.0000
  C   C38       1.0  0.7331694575000169  0.16873773944909723  0.8343097997748211  1.0000
  C   C39       1.0  0.9872792886573303  0.1849319856111146  0.4004240497939978  1.0000
  C   C40       1.0  0.012720711164167689  0.8150680149510345  0.5995759505904978  1.0000
  C   C41       1.0  0.06772584084785782  0.3687666216962435  0.6909345743566768  1.0000
  C   C42       1.0  0.9322741589413909  0.6312333779515891  0.30906542603416176  1.0000
  C   C43       1.0  0.9950787733405457  0.2250431425925695  0.5222816002774573  1.0000
  C   C44       1.0  0.004921226369760404  0.7749568579326012  0.4777183992351664  1.0000
  C   C45       1.0  0.15658161902276838  0.5147770794032103  0.842978613926158  1.0000
  C   C46       1.0  0.8434183816098535  0.48522292021107066  0.15702138559194695  1.0000
  C   C47       1.0  0.025057208247296296  0.2977635396752664  0.7798565145831338  1.0000
  C   C48       1.0  0.9749427915742017  0.7022364608868826  0.2201434858013619  1.0000
  C   C49       1.0  0.040305707952124854  0.2549887932624909  0.315685776425178  1.0000
  C   C50       1.0  0.959694291725932  0.7450112063483629  0.6843142230937888  1.0000
  C   C51       1.0  0.05073364883921564  0.33189133496793005  0.5682836309607037  1.0000
  C   C52       1.0  0.9492663518256557  0.6681086655606674  0.4317163685510585  1.0000
  C   C53       1.0  0.050724007720910305  0.33948611290294745  0.8946351049288062  1.0000
  C   C54       1.0  0.9492759919571466  0.6605138867079065  0.1053648945901605  1.0000
  C   C55       1.0  0.917785032706576  0.028425371298694067  0.2494456640366467  1.0000
  C   C56       1.0  0.08221496708267287  0.9715746283491385  0.7505543363541919  1.0000
  C   C57       1.0  0.9258590066398921  0.07094137039651334  0.36518502723632784  1.0000
  C   C58       1.0  0.07414099413617091  0.9290586301690628  0.6348149731473061  1.0000
  C   C59       1.0  0.1336102365221054  0.4803956915318918  0.7256762045997852  1.0000
  C   C60       1.0  0.8663897632671432  0.5196043081159408  0.2743237957910533  1.0000
  C   C61       1.0  0.03264396707472926  0.21197871136741506  0.2009288587749406  1.0000
  C   C62       1.0  0.9673560327145194  0.7880212882804175  0.7990711416158979  1.0000
  C   C63       1.0  0.9715921083469469  0.09855935882538439  0.1669207400370471  1.0000
  C   C64       1.0  0.028407891442301738  0.9014406408224481  0.8330792603537915  1.0000
  N   N1        1.0  0.43307212487383306  0.23529469704411968  0.8519249136761785  1.0000
  N   N2        1.0  0.5669278749154156  0.7647053026037129  0.1480750867146602  1.0000
  N   N3        1.0  0.11646968456454944  0.44549514564988657  0.9272551756842708  1.0000
  N   N4        1.0  0.8835303152246993  0.554504853997946  0.07274482470656757  1.0000
  O   O1        1.0  0.19451099025578641  0.5044065958357543  0.14536825566323325  1.0000
  O   O2        1.0  0.8054890095657118  0.49559340472639485  0.8546317447212624  1.0000
  O   O3        1.0  0.5543499094365789  0.2671561757484186  0.06256061421285038  1.0000
  O   O4        1.0  0.44565009035266984  0.732843823899414  0.9374393861779882  1.0000
  Br  Br1       1.0  0.27006886967891164  0.5491222722613922  0.4053696749241609  1.0000
  Br  Br2       1.0  0.7299311301425864  0.45087772830075695  0.5946303254603346  1.0000
  Br  Br3       1.0  0.6814156218252309  0.2485914027494379  0.3108763648493207  1.0000
  Br  Br4       1.0  0.3185843788073912  0.7514085968648431  0.6891236346687843  1.0000
