data_image0
_chemical_formula_structural       H96C52O4P8S4I8
_chemical_formula_sum              "H96 C52 O4 P8 S4 I8"
_cell_length_a       8.872380699863342
_cell_length_b       19.9422219243157
_cell_length_c       11.256235265110515
_cell_angle_alpha    90.0
_cell_angle_beta     94.96836026362845
_cell_angle_gamma    90.0

_space_group_name_H-M_alt    "P 1"
_space_group_IT_number       1

loop_
  _space_group_symop_operation_xyz
  'x, y, z'

loop_
  _atom_site_type_symbol
  _atom_site_label
  _atom_site_symmetry_multiplicity
  _atom_site_fract_x
  _atom_site_fract_y
  _atom_site_fract_z
  _atom_site_occupancy
  H   H1        1.0  0.835391014259993  0.30995062703937387  0.923764325120968  1.0000
  H   H2        1.0  0.16460898590249415  0.8099506269311687  0.5762356745092143  1.0000
  H   H3        1.0  0.16460898493376272  0.6900493732456645  0.07623567451775208  1.0000
  H   H4        1.0  0.8353910144183418  0.19004937335386968  0.4237643251293891  1.0000
  H   H5        1.0  0.8406606750525951  0.36836870775381636  0.12024424404874502  1.0000
  H   H6        1.0  0.15933932552471794  0.8683687076456114  0.37975575649002663  1.0000
  H   H7        1.0  0.159339325366369  0.6316312925312221  0.8797557564816054  1.0000
  H   H8        1.0  0.8406606748942462  0.13163129213797853  0.6202442440403239  1.0000
  H   H9        1.0  0.8169523303662843  0.4922440206139087  0.12923332154175843  1.0000
  H   H10       1.0  0.1830476701129006  0.9922440205057035  0.3707666781052662  1.0000
  H   H11       1.0  0.18304766995455168  0.5077559796711296  0.870766678096845  1.0000
  H   H12       1.0  0.8169523303060635  0.007755979277886179  0.6292333224250843  1.0000
  H   H13       1.0  0.7994801986027097  0.5603437496789085  0.9429088103614314  1.0000
  H   H14       1.0  0.20051980155977733  0.06034374928566507  0.5570911892687507  1.0000
  H   H15       1.0  0.20051980171812628  0.4396562506061298  0.057091189277171835  1.0000
  H   H16       1.0  0.7994801987610587  0.9396562504979247  0.4429088103698528  1.0000
  H   H17       1.0  0.5828493309026747  0.32207680991497123  0.5554411435502049  1.0000
  H   H18       1.0  0.41715066925981237  0.8220768098067661  0.9445588560799772  1.0000
  H   H19       1.0  0.41715066941816137  0.6779231898686185  0.44455885608839857  1.0000
  H   H20       1.0  0.5828493310610237  0.17792318997682363  0.055441143558626046  1.0000
  H   H21       1.0  0.5155295334911939  0.3743167881858854  0.6707837435318572  1.0000
  H   H22       1.0  0.4844704655442128  0.8743167885791289  0.8292162560984415  1.0000
  H   H23       1.0  0.48447046570256175  0.6256832115977045  0.3292162561068627  1.0000
  H   H24       1.0  0.5155295336495428  0.1256832117059095  0.1707837435402785  1.0000
  H   H25       1.0  0.5912586717567682  0.2921122782660986  0.707402255871097  1.0000
  H   H26       1.0  0.408741328405719  0.7921122781578935  0.7925977437590852  1.0000
  H   H27       1.0  0.408741328564068  0.7078877220189399  0.29259774376750647  1.0000
  H   H28       1.0  0.5912586707880367  0.20788772212714493  0.20740225587963473  1.0000
  H   H29       1.0  0.9033841860984475  0.26190093109091794  0.7082923289161084  1.0000
  H   H30       1.0  0.09661581406403959  0.7619009309827128  0.7917076707140738  1.0000
  H   H31       1.0  0.09661581309530816  0.7380990686926717  0.29170767072261167  1.0000
  H   H32       1.0  0.9033841862567964  0.23809906880087692  0.2082923289245296  1.0000
  H   H33       1.0  0.03658625328032555  0.32524443086712684  0.6643192827679163  1.0000
  H   H34       1.0  0.9634137468821615  0.8252444307589217  0.8356807168622659  1.0000
  H   H35       1.0  0.9634137470405105  0.6747555689164629  0.33568071687068707  1.0000
  H   H36       1.0  0.036586253438674485  0.17475556902466802  0.16431928277633753  1.0000
  H   H37       1.0  0.898647492667532  0.2888088324289186  0.5552748266281184  1.0000
  H   H38       1.0  0.10135250759308326  0.7888088323207135  0.9447251738938108  1.0000
  H   H39       1.0  0.1013525077514322  0.7111911673546711  0.44472517390223204  1.0000
  H   H40       1.0  0.8986474928258809  0.21119116746287628  0.05527482663653967  1.0000
  H   H41       1.0  0.5891040796131709  0.5921583540097533  0.7203126381098609  1.0000
  H   H42       1.0  0.4108959205493162  0.09215835361650976  0.7796873615203214  1.0000
  H   H43       1.0  0.4108959207076651  0.4078416462752852  0.27968736152874263  1.0000
  H   H44       1.0  0.5891040797715198  0.9078416461670801  0.22031263811828203  1.0000
  H   H45       1.0  0.5111765939084941  0.51336129488747  0.668204539987264  1.0000
  H   H46       1.0  0.4888234052250406  0.013361294494226383  0.8317954605347817  1.0000
  H   H47       1.0  0.48882340538338964  0.48663870539756854  0.33179546054320297  1.0000
  H   H48       1.0  0.5111765940668431  0.9866387052893634  0.16820453999568533  1.0000
  H   H49       1.0  0.5922394234870229  0.5703280644034993  0.5660085501315825  1.0000
  H   H50       1.0  0.4077605755483838  0.07032806451170437  0.9339914494987162  1.0000
  H   H51       1.0  0.4077605757067328  0.42967193538009046  0.4339914495071376  1.0000
  H   H52       1.0  0.5922394236453717  0.9296719352718854  0.06600855014000366  1.0000
  H   H53       1.0  0.9082998493595413  0.6009256303274848  0.5877179677136878  1.0000
  H   H54       1.0  0.09170015090107377  0.10092563043568994  0.9122820328082415  1.0000
  H   H55       1.0  0.09170015105942272  0.39907436945610497  0.41228203281666276  1.0000
  H   H56       1.0  0.9082998483908099  0.8990743698493485  0.08771796772222556  1.0000
  H   H57       1.0  0.038271691078145535  0.5550111859152723  0.6884789402995432  1.0000
  H   H58       1.0  0.9617283090843416  0.05501118602347737  0.811521059330639  1.0000
  H   H59       1.0  0.9617283092426904  0.44498881386831746  0.3115210593390603  1.0000
  H   H60       1.0  0.03827169123649447  0.9449888137601123  0.1884789403079643  1.0000
  H   H61       1.0  0.9102708243733678  0.615741801821381  0.7457599966221257  1.0000
  H   H62       1.0  0.08972917578911929  0.11574180192958623  0.7542400030080564  1.0000
  H   H63       1.0  0.08972917594746825  0.38425819846365733  0.2542400030164776  1.0000
  H   H64       1.0  0.9102708245317167  0.884258198355452  0.24575999663054698  1.0000
  H   H65       1.0  0.742136342128441  0.4450611648834389  0.505307548882476  1.0000
  H   H66       1.0  0.25786365803404604  0.9450611647752338  0.9946924507477062  1.0000
  H   H67       1.0  0.257863658192395  0.5549388349001508  0.49469245075612733  1.0000
  H   H68       1.0  0.7421363422867899  0.054938835008356  0.005307548890897221  1.0000
  H   H69       1.0  0.934182702908942  0.4447891054298539  0.5710888303712804  1.0000
  H   H70       1.0  0.06581729725354511  0.9447891053216487  0.9289111692589017  1.0000
  H   H71       1.0  0.06581729741189406  0.5552108948551846  0.428911169267323  1.0000
  H   H72       1.0  0.9341827019402104  0.055210894461940996  0.0710888303798183  1.0000
  H   H73       1.0  0.18405185379580657  0.19038591509056638  0.3670119543604871  1.0000
  H   H74       1.0  0.8159481456544261  0.6903859149823613  0.1329880461784011  1.0000
  H   H75       1.0  0.8159481454960772  0.8096140851944721  0.6329880461699798  1.0000
  H   H76       1.0  0.1840518536374576  0.30961408530267714  0.8670119543520658  1.0000
  H   H77       1.0  0.2879402167337137  0.26848832945096845  0.3689979930662772  1.0000
  H   H78       1.0  0.7120597837454712  0.7684883293427633  0.13100200658074743  1.0000
  H   H79       1.0  0.7120597835871223  0.7315116703326213  0.6310020065723262  1.0000
  H   H80       1.0  0.2879402165753648  0.23151167044082643  0.868997993057856  1.0000
  H   H81       1.0  0.11016474612547497  0.26467324403627684  0.4338173034866907  1.0000
  H   H82       1.0  0.8898352533247577  0.7646732439280717  0.06618269705219763  1.0000
  H   H83       1.0  0.8898352531664089  0.7353267562487615  0.5661826970437764  1.0000
  H   H84       1.0  0.11016474709420639  0.23532675585551804  0.9338173034781527  1.0000
  H   H85       1.0  0.53119822762311  0.14892699275293572  0.57849713208261  1.0000
  H   H86       1.0  0.46880177253937705  0.6489269926447305  0.9215028675475722  1.0000
  H   H87       1.0  0.468801772697726  0.8510730070306541  0.42150286755599337  1.0000
  H   H88       1.0  0.531198227781459  0.3510730071388592  0.07849713209103124  1.0000
  H   H89       1.0  0.5285268259792484  0.2045789704619383  0.4529841749881022  1.0000
  H   H90       1.0  0.47147317449993664  0.7045789703537332  0.04701582465892242  1.0000
  H   H91       1.0  0.4714731743415877  0.7954210293216515  0.5470158246505012  1.0000
  H   H92       1.0  0.5285268258208994  0.2954210294298566  0.952984174979681  1.0000
  H   H93       1.0  0.4150368153385963  0.1287949070944929  0.44196878400529166  1.0000
  H   H94       1.0  0.5849631840135082  0.6287949069862878  0.05803121564184958  1.0000
  H   H95       1.0  0.5849631838551593  0.8712050926890968  0.5580312156334284  1.0000
  H   H96       1.0  0.41503681630732786  0.37120509279730196  0.9419687839967539  1.0000
  C   C1        1.0  0.8144719000999419  0.40248549687501384  0.8236781346667511  1.0000
  C   C2        1.0  0.1855281000625452  0.9024854967668088  0.6763218649634312  1.0000
  C   C3        1.0  0.1855281002208941  0.5975145029085759  0.1763218649718523  1.0000
  C   C4        1.0  0.8144719002582909  0.09751450301678102  0.3236781346751723  1.0000
  C   C5        1.0  0.83026776337241  0.3645924931331086  0.9283976320667912  1.0000
  C   C6        1.0  0.16973223688820516  0.8645924935263521  0.5716023684551379  1.0000
  C   C7        1.0  0.1697322359194737  0.6354075066504812  0.07160236846367579  1.0000
  C   C8        1.0  0.8302677635307589  0.1354075067586863  0.4283976320752125  1.0000
  C   C9        1.0  0.8325069197177086  0.39745669314488785  0.03791859370263738  1.0000
  C   C10       1.0  0.16749308076147637  0.8974566930366827  0.46208140594438724  1.0000
  C   C11       1.0  0.16749308060312743  0.6025433071401506  0.962081405935966  1.0000
  C   C12       1.0  0.8325069195593595  0.1025433072483557  0.5379185936942161  1.0000
  C   C13       1.0  0.8188172392192498  0.4671809533239708  0.04315608389079402  1.0000
  C   C14       1.0  0.1811827612599352  0.9671809532157657  0.45684391575623057  1.0000
  C   C15       1.0  0.18118276110158626  0.532819046459619  0.9568439157478094  1.0000
  C   C16       1.0  0.8188172390609008  0.03281904656782411  0.5431560838823728  1.0000
  C   C17       1.0  0.8061987168528458  0.505671941585618  0.9391735385406007  1.0000
  C   C18       1.0  0.19380128330964128  0.005671941693823132  0.5608264610895815  1.0000
  C   C19       1.0  0.19380128234090982  0.49432805819797176  0.06082646109811923  1.0000
  C   C20       1.0  0.8061987170111947  0.9943280585912153  0.439173538549022  1.0000
  C   C21       1.0  0.8040766405685451  0.47307011955859185  0.8291053647386502  1.0000
  C   C22       1.0  0.19592335969206998  0.9730701194503867  0.670894635783279  1.0000
  C   C23       1.0  0.19592335872333855  0.526929880224998  0.1708946357918169  1.0000
  C   C24       1.0  0.8040766407268941  0.02692988033320305  0.3291053647470714  1.0000
  C   C25       1.0  0.599742647348154  0.3364925741708825  0.6500493532459494  1.0000
  C   C26       1.0  0.40025735281433306  0.8364925740626773  0.8499506463842328  1.0000
  C   C27       1.0  0.4002573518456016  0.6635074261141559  0.34995064639277074  1.0000
  C   C28       1.0  0.5997426475065029  0.16350742622236103  0.15004935325437052  1.0000
  C   C29       1.0  0.9219535980445002  0.30440244988940984  0.6487560121309861  1.0000
  C   C30       1.0  0.07804640211798691  0.8044024497812047  0.8512439874991963  1.0000
  C   C31       1.0  0.07804640227633584  0.6955975503956285  0.3512439875076173  1.0000
  C   C32       1.0  0.9219535982028492  0.19559755000238507  0.14875601213940728  1.0000
  C   C33       1.0  0.600636219991579  0.5506287429592324  0.657609620480574  1.0000
  C   C34       1.0  0.39936378017090807  0.050628742565988934  0.8423903791496081  1.0000
  C   C35       1.0  0.39936377920217664  0.44937125732580596  0.34239037915814596  1.0000
  C   C36       1.0  0.6006362201499279  0.9493712572176009  0.15760962048899524  1.0000
  C   C37       1.0  0.9256035791402858  0.5780071314894631  0.676575543050086  1.0000
  C   C38       1.0  0.0743964211203295  0.07800713109621962  0.8234244574718431  1.0000
  C   C39       1.0  0.07439642127867845  0.42199286879557524  0.3234244574802644  1.0000
  C   C40       1.0  0.9256035792986347  0.9219928686873701  0.1765755430585073  1.0000
  C   C41       1.0  0.8138715763508613  0.4436991752263645  0.5898331565638838  1.0000
  C   C42       1.0  0.18612842381162578  0.9436991751181594  0.9101668430662982  1.0000
  C   C43       1.0  0.18612842284289435  0.5563008250586738  0.41016684307483614  1.0000
  C   C44       1.0  0.8138715765092103  0.056300825166879016  0.08983315657230502  1.0000
  C   C45       1.0  0.21258437105348235  0.2365970756872872  0.4173001862355032  1.0000
  C   C46       1.0  0.7874156283967504  0.7365970755790822  0.08269981430338508  1.0000
  C   C47       1.0  0.7874156282384015  0.7634029240963026  0.5826998142949639  1.0000
  C   C48       1.0  0.21258437089513343  0.26340292420450767  0.9173001862270821  1.0000
  C   C49       1.0  0.4612819180654335  0.16896049711951142  0.5013763152268428  1.0000
  C   C50       1.0  0.5387180820970535  0.668960497512755  0.9986236844033393  1.0000
  C   C51       1.0  0.5387180822554025  0.8310395026640784  0.4986236844117605  1.0000
  C   C52       1.0  0.4612819182237825  0.3310395027722835  0.0013763152352640775  1.0000
  O   O1        1.0  0.21118991205923746  0.16394700813220384  0.6173891136756132  1.0000
  O   O2        1.0  0.7888100881032496  0.6639470080239988  0.8826108859545689  1.0000
  O   O3        1.0  0.7888100882615985  0.8360529921528345  0.38261088596299014  1.0000
  O   O4        1.0  0.2111899122175864  0.3360529917595911  0.11738911368403443  1.0000
  P   P1        1.0  0.7875775590104104  0.36809171504854193  0.6758177720735418  1.0000
  P   P2        1.0  0.21242244125020482  0.8680917149403368  0.8241822284483876  1.0000
  P   P3        1.0  0.21242244140855376  0.6319082847350479  0.32418222845680866  1.0000
  P   P4        1.0  0.7875775591687593  0.13190828484325298  0.175817772081963  1.0000
  P   P5        1.0  0.7847689238717228  0.5146964119120947  0.6867548675721675  1.0000
  P   P6        1.0  0.21523107629076427  0.014696412020299825  0.8132451320580145  1.0000
  P   P7        1.0  0.21523107644911324  0.48530358837294374  0.3132451320664358  1.0000
  P   P8        1.0  0.7847689240300717  0.9853035882647386  0.18675486758058885  1.0000
  S   S1        1.0  0.3089380099422267  0.2147858215727372  0.5602124433519512  1.0000
  S   S2        1.0  0.6910619902202604  0.7147858214645322  0.939787556278231  1.0000
  S   S3        1.0  0.6910619903786093  0.7852141787123013  0.43978755628665217  1.0000
  S   S4        1.0  0.30893801010057564  0.2852141788205063  0.06021244336037246  1.0000
  I   I1        1.0  0.7627051703311712  0.5660645229424383  0.3354089236125549  1.0000
  I   I2        1.0  0.23729482911906136  0.06606452305064336  0.16459107692633335  1.0000
  I   I3        1.0  0.23729482896071238  0.4339354768411515  0.6645910769179121  1.0000
  I   I4        1.0  0.7627051712999028  0.9339354767329464  0.8354089236040171  1.0000
  I   I5        1.0  0.7057830843700066  0.3206678941930104  0.3331167615952801  1.0000
  I   I6        1.0  0.29421691508022607  0.8206678940848053  0.1668832389436082  1.0000
  I   I7        1.0  0.29421691604895756  0.679332106092028  0.6668832389350704  1.0000
  I   I8        1.0  0.7057830842116577  0.17933210569878447  0.8331167615868589  1.0000
