data_image0
_chemical_formula_structural       H92C64N8O6S6Br4I4
_chemical_formula_sum              "H92 C64 N8 O6 S6 Br4 I4"
_cell_length_a       8.51991859095472
_cell_length_b       8.871521513296738
_cell_length_c       25.751235937516466
_cell_angle_alpha    89.52533029130413
_cell_angle_beta     85.15638033914138
_cell_angle_gamma    84.9502686357979

_space_group_name_H-M_alt    "P 1"
_space_group_IT_number       1

loop_
  _space_group_symop_operation_xyz
  'x, y, z'

loop_
  _atom_site_type_symbol
  _atom_site_label
  _atom_site_symmetry_multiplicity
  _atom_site_fract_x
  _atom_site_fract_y
  _atom_site_fract_z
  _atom_site_occupancy
  H   H1        1.0  0.8006924597080357  0.34611716130196246  0.43334231570284293  1.0000
  H   H2        1.0  0.19930753976676654  0.6538828388999773  0.5666576840129894  1.0000
  H   H3        1.0  0.6094216174640554  0.33137264797047306  0.4124840730328622  1.0000
  H   H4        1.0  0.3905783819088779  0.6686273522301786  0.5875159270726921  1.0000
  H   H5        1.0  0.5816937762647747  0.9954898171342835  0.44840121254132304  1.0000
  H   H6        1.0  0.4183062232055544  0.00451018193479043  0.5515987875641177  1.0000
  H   H7        1.0  0.9095503631647651  0.747450632194171  0.33730206489360975  1.0000
  H   H8        1.0  0.09044963738221562  0.2525493680003603  0.6626979352127832  1.0000
  H   H9        1.0  0.04329228682102785  0.9835224318963443  0.3161655569171914  1.0000
  H   H10       1.0  0.9567077126537743  0.016477568305595634  0.6838344427986413  1.0000
  H   H11       1.0  0.9518778125085277  0.22131182111446218  0.3647958778342284  1.0000
  H   H12       1.0  0.04812218813584886  0.7786881779484914  0.6352041222720508  1.0000
  H   H13       1.0  0.7526412923626802  0.6324011314181116  0.424990175928936  1.0000
  H   H14       1.0  0.24735870818430036  0.36759886877641973  0.5750098241774568  1.0000
  H   H15       1.0  0.6377899701935402  0.6516931878077449  0.37116526080388534  1.0000
  H   H16       1.0  0.36221002928126206  0.34830681239419503  0.6288347389119471  1.0000
  H   H17       1.0  0.9489172836636065  0.13368683759350694  0.5572292127649303  1.0000
  H   H18       1.0  0.05108271688337397  0.8663131626010242  0.4427707873414624  1.0000
  H   H19       1.0  0.9615470802753807  0.2930286671034444  0.5160092929111748  1.0000
  H   H20       1.0  0.03845292027160007  0.706971333091087  0.483990707195218  1.0000
  H   H21       1.0  0.9398545034039911  0.11366741017534535  0.4887126212206887  1.0000
  H   H22       1.0  0.06014549724038534  0.8863325888876082  0.5112873788855906  1.0000
  H   H23       1.0  0.22288479533538036  0.8501810804181295  0.3673012896132164  1.0000
  H   H24       1.0  0.7771152040375531  0.14981891978252213  0.632698710492338  1.0000
  H   H25       1.0  0.3459528353508389  0.6831180072897796  0.35057152792949947  1.0000
  H   H26       1.0  0.6540471641194903  0.31688199177929455  0.6494284721759414  1.0000
  H   H27       1.0  0.42737005967894076  0.8623361533872677  0.34933948826151606  1.0000
  H   H28       1.0  0.5726299409654357  0.13766384567568593  0.6506605118447633  1.0000
  H   H29       1.0  0.12902113910911864  0.3268313664393227  0.9060511319554924  1.0000
  H   H30       1.0  0.8709788615397307  0.6731686337564966  0.09394886776117858  1.0000
  H   H31       1.0  0.31764697387782587  0.3373322150668268  0.9284047879558996  1.0000
  H   H32       1.0  0.6823530254951075  0.6626677851338247  0.07159521214965461  1.0000
  H   H33       1.0  0.09350282347088916  0.9938751774999756  0.9520791249246378  1.0000
  H   H34       1.0  0.9064971771779603  0.0061248226958439305  0.04792087479203319  1.0000
  H   H35       1.0  0.15115160833793362  0.630107894644521  0.8828587038628556  1.0000
  H   H36       1.0  0.8488483923109158  0.36989210555129837  0.11714129585381536  1.0000
  H   H37       1.0  0.25711828946010185  0.6309052249635677  0.9385817187692709  1.0000
  H   H38       1.0  0.7428817099128316  0.369094775237084  0.06141828133628335  1.0000
  H   H39       1.0  0.40931204375865554  0.7241710810396482  0.8433219657545898  1.0000
  H   H40       1.0  0.590687956788325  0.27582891915488306  0.15667803435180294  1.0000
  H   H41       1.0  0.5492175174324311  0.9528110570164422  0.8175001213157532  1.0000
  H   H42       1.0  0.4507824831145495  0.047188943178088964  0.18249987879063956  1.0000
  H   H43       1.0  0.463476009543588  0.1999731407849579  0.8609225381593403  1.0000
  H   H44       1.0  0.5365239910033927  0.8000268594095733  0.13907746194705253  1.0000
  H   H45       1.0  0.4502779904334005  0.1319273371512138  0.9886935907362675  1.0000
  H   H46       1.0  0.5497220090369288  0.8680726619178603  0.011306409369173273  1.0000
  H   H47       1.0  0.4456807918888767  0.14693739881610382  0.0578137253542216  1.0000
  H   H48       1.0  0.5543192086581039  0.8530626013784274  0.9421862747521712  1.0000
  H   H49       1.0  0.4619193201603534  0.31011011907251085  0.01846724624228678  1.0000
  H   H50       1.0  0.5380806803866272  0.6898898811220203  0.981532753864106  1.0000
  H   H51       1.0  0.2648659732670125  0.17503179217839393  0.13123688772252776  1.0000
  H   H52       1.0  0.7351340262077897  0.8249682080235459  0.8687631119933047  1.0000
  H   H53       1.0  0.05923420261745382  0.15877967204872778  0.14624014633638022  1.0000
  H   H54       1.0  0.9407657968528753  0.8412203270203462  0.8537598537690606  1.0000
  H   H55       1.0  0.133853741301815  0.3399746775774465  0.14408390495751794  1.0000
  H   H56       1.0  0.8661462592451655  0.6600253226170848  0.8559160951488748  1.0000
  H   H57       1.0  0.4310057250561415  0.4163875156248521  0.7210204948458321  1.0000
  H   H58       1.0  0.5689942744186607  0.5836124845770877  0.2789795048700004  1.0000
  H   H59       1.0  0.2734712302295283  0.292920029889566  0.7339810377039845  1.0000
  H   H60       1.0  0.7265287703174521  0.7070799703049653  0.26601896240240847  1.0000
  H   H61       1.0  0.4189639760059405  0.30556549602619854  0.7803296175331045  1.0000
  H   H62       1.0  0.5810360234688617  0.6944345041757413  0.21967038218272805  1.0000
  H   H63       1.0  0.2264265062491776  0.6300542435448812  0.7002294574031893  1.0000
  H   H64       1.0  0.7735734942978029  0.3699457566496501  0.2997705427032036  1.0000
  H   H65       1.0  0.06747303406579425  0.5106145847067152  0.7142348823826864  1.0000
  H   H66       1.0  0.9325269664811864  0.48938541548781606  0.2857651177237064  1.0000
  H   H67       1.0  0.05740564260146959  0.6944559401377507  0.7437440289265572  1.0000
  H   H68       1.0  0.942594357945511  0.3055440600567806  0.2562559711798356  1.0000
  H   H69       1.0  0.9133043774947951  0.7981300694821141  0.18505955820547926  1.0000
  H   H70       1.0  0.08669562305218544  0.20186993071241724  0.8149404419009135  1.0000
  H   H71       1.0  0.9057485040102321  0.8982255952249512  0.24619790739767214  1.0000
  H   H72       1.0  0.09425149663861739  0.10177440497086823  0.7538020923189989  1.0000
  H   H73       1.0  0.9177308253575317  0.0007626305515593736  0.18563258039735656  1.0000
  H   H74       1.0  0.08226917529131791  0.99923736964426  0.8143674193193143  1.0000
  H   H75       1.0  0.12302070927814061  0.6092707642709889  0.20971440998799082  1.0000
  H   H76       1.0  0.8769792900947928  0.39072923592966263  0.7902855901175635  1.0000
  H   H77       1.0  0.1237921639760949  0.6977624647721197  0.27310706864966533  1.0000
  H   H78       1.0  0.8762078366727546  0.3022375354236996  0.7268929310670057  1.0000
  H   H79       1.0  0.3064007857443299  0.6509364041815395  0.23345825813634438  1.0000
  H   H80       1.0  0.6935992148026507  0.34906359601299175  0.7665417419700484  1.0000
  H   H81       1.0  0.24629926882328995  0.2176435454654651  0.2559052033365081  1.0000
  H   H82       1.0  0.7537007317236907  0.7823564547290662  0.7440947967698847  1.0000
  H   H83       1.0  0.21533199877879314  0.4027062018975667  0.2859268643284679  1.0000
  H   H84       1.0  0.7846680019674521  0.5972937971666752  0.7140731353880895  1.0000
  H   H85       1.0  0.3789642311163105  0.3610415913309551  0.23702239443839537  1.0000
  H   H86       1.0  0.6210357694306702  0.6389584088635761  0.7629776056679974  1.0000
  H   H87       1.0  0.47474588887520897  0.02645804783330909  0.27239005274057637  1.0000
  H   H88       1.0  0.5252541117691675  0.9735419512296446  0.727609947365703  1.0000
  H   H89       1.0  0.6333604232248808  0.06151215346821284  0.3119713410762406  1.0000
  H   H90       1.0  0.3666395774239685  0.9384878467276063  0.6880286586404304  1.0000
  H   H91       1.0  0.611583997558767  0.16356995642415606  0.25179761855001265  1.0000
  H   H92       1.0  0.38841600181416636  0.8364300437764957  0.7482023815555415  1.0000
  C   C1        1.0  0.48526404844664606  0.29159924046841795  0.506323292496232  1.0000
  C   C2        1.0  0.5147359509262872  0.7084007597322337  0.4936767076093223  1.0000
  C   C3        1.0  0.7024836223359139  0.27304569565468056  0.4344347700099569  1.0000
  C   C4        1.0  0.2975163771388883  0.7269543045472593  0.5655652297058756  1.0000
  C   C5        1.0  0.7594163676986522  0.1237145214939314  0.4086585023686055  1.0000
  C   C6        1.0  0.24058363167428123  0.8762854787067202  0.5913414977369488  1.0000
  C   C7        1.0  0.6828085350479699  0.9921141739055631  0.41934538908544927  1.0000
  C   C8        1.0  0.3171914654990108  0.007885826288968011  0.5806546110209435  1.0000
  C   C9        1.0  0.7361356973004357  0.8567268507187206  0.39360170646254483  1.0000
  C   C10       1.0  0.26386430207249756  0.14327314948193104  0.6063982936430096  1.0000
  C   C11       1.0  0.8654090611395326  0.8545269167972994  0.3560545315614431  1.0000
  C   C12       1.0  0.13459093823340076  0.14547308340335224  0.6439454685441112  1.0000
  C   C13       1.0  0.9419002504337339  0.9853262042304367  0.34521161827883845  1.0000
  C   C14       1.0  0.058099748939199725  0.014673795970214877  0.6547883818267157  1.0000
  C   C15       1.0  0.889992838184183  0.11938068405198396  0.3717727892634326  1.0000
  C   C16       1.0  0.11000716118875022  0.8806193161486677  0.6282272108421217  1.0000
  C   C17       1.0  0.6651228142185144  0.7092228071206825  0.4064870594901033  1.0000
  C   C18       1.0  0.33487718643033504  0.2907771930751369  0.5935129402265678  1.0000
  C   C19       1.0  0.37161064187355847  0.7724603848231082  0.42571976671906653  1.0000
  C   C20       1.0  0.628389358673422  0.22753961537142303  0.5742802333873263  1.0000
  C   C21       1.0  0.729818227067565  0.2189774684991202  0.529801563212079  1.0000
  C   C22       1.0  0.2701817734794156  0.781022531695411  0.4701984368943138  1.0000
  C   C23       1.0  0.9038697620620606  0.18744760521211842  0.5223538349645905  1.0000
  C   C24       1.0  0.09613023731087288  0.8125523949885333  0.4776461651409638  1.0000
  C   C25       1.0  0.3412656954866619  0.7934933729937999  0.3701714349850665  1.0000
  C   C26       1.0  0.6587343050603186  0.20650662720073143  0.6298285651213263  1.0000
  C   C27       1.0  0.9903957555996222  0.2909839987917648  0.9984125444437938  1.0000
  C   C28       1.0  0.009604243773311044  0.7090160014088869  0.0015874556617605348  1.0000
  C   C29       1.0  0.12347287293611521  0.23963786208174379  0.06945947475556634  1.0000
  C   C30       1.0  0.87652712781013  0.7603621369824981  0.930540524960991  1.0000
  C   C31       1.0  0.2314782395365635  0.23002967932097623  0.02660294840410835  1.0000
  C   C32       1.0  0.768521761107813  0.7699703197419774  0.9733970517021708  1.0000
  C   C33       1.0  0.2166451521655464  0.26769746390600674  0.9298429266715422  1.0000
  C   C34       1.0  0.783354847207387  0.7323025362946449  0.07015707343401203  1.0000
  C   C35       1.0  0.27007716507482094  0.11308355011579245  0.9075709855343763  1.0000
  C   C36       1.0  0.7299228354721596  0.8869164500787388  0.09242901457201667  1.0000
  C   C37       1.0  0.19263010504083738  0.9845144455017137  0.9222090942610031  1.0000
  C   C38       1.0  0.8073698955061432  0.015485554692817583  0.0777909058453897  1.0000
  C   C39       1.0  0.242503432291701  0.8443436904092095  0.8991845389465768  1.0000
  C   C40       1.0  0.7574965670812324  0.15565630979144213  0.10081546115897747  1.0000
  C   C41       1.0  0.17223749110139538  0.6995909336118035  0.9163040097542273  1.0000
  C   C42       1.0  0.827762508271538  0.3004090665888481  0.08369599035132691  1.0000
  C   C43       1.0  0.3691283344578072  0.8341155867793596  0.8605525101741652  1.0000
  C   C44       1.0  0.6308716649151263  0.1658844134212921  0.13944748993138914  1.0000
  C   C45       1.0  0.44797524922365767  0.9614455436690318  0.846582608662245  1.0000
  C   C46       1.0  0.5520247501492757  0.03855445653161978  0.1534173914433093  1.0000
  C   C47       1.0  0.3995962956551816  0.100446749001839  0.8702548778320931  1.0000
  C   C48       1.0  0.6004037037177518  0.8995532511988128  0.12974512227346116  1.0000
  C   C49       1.0  0.40631097603850913  0.20272100077406155  0.02247300466979662  1.0000
  C   C50       1.0  0.5936890245084715  0.7972789994204696  0.9775269954365962  1.0000
  C   C51       1.0  0.1461695305001825  0.22738477201527243  0.1258122133101352  1.0000
  C   C52       1.0  0.8538304700467981  0.7726152281792588  0.8741877867962575  1.0000
  C   C53       1.0  0.35192553282898753  0.3666795314139808  0.7510943455129439  1.0000
  C   C54       1.0  0.6480744665439457  0.6333204687866709  0.24890565459261044  1.0000
  C   C55       1.0  0.1361138778320362  0.5959685384051876  0.7299144932914599  1.0000
  C   C56       1.0  0.8638861227149442  0.40403146178934357  0.27008550681493293  1.0000
  C   C57       1.0  0.9531744300712789  0.8946181497175251  0.2052291078414037  1.0000
  C   C58       1.0  0.046825569403523136  0.10538185048441472  0.7947708918744288  1.0000
  C   C59       1.0  0.18049418764878397  0.6877160421118371  0.23318680152734197  1.0000
  C   C60       1.0  0.8195058117241494  0.31228395808881454  0.7668131985782125  1.0000
  C   C61       1.0  0.5492145019550239  0.11142484846085186  0.28538347892439986  1.0000
  C   C62       1.0  0.45078549741790946  0.8885751517397998  0.7146165211811544  1.0000
  C   C63       1.0  0.30338097103412975  0.31537047304345267  0.26901442005426457  1.0000
  C   C64       1.0  0.6966190283388036  0.6846295271571989  0.7309855800512898  1.0000
  N   N1        1.0  0.6383724002281879  0.259134403252971  0.4884570018433982  1.0000
  N   N2        1.0  0.36162759914474557  0.7408655969476808  0.5115429982621561  1.0000
  N   N3        1.0  0.5214782465065977  0.7265535568552975  0.4413343634885733  1.0000
  N   N4        1.0  0.47852175296820454  0.2734464433466423  0.5586656362272592  1.0000
  N   N5        1.0  0.9756984151832198  0.27792910330550674  0.050942420087719834  1.0000
  N   N6        1.0  0.024301584291582554  0.7220708968964331  0.9490575796281127  1.0000
  N   N7        1.0  0.14614757825031274  0.2634769571302899  0.9833398935186821  1.0000
  N   N8        1.0  0.8538524222966679  0.7365230430642414  0.01666010658771064  1.0000
  O   O1        1.0  0.11612224421637121  0.45902384200596236  0.8228728700833936  1.0000
  O   O2        1.0  0.883877755253958  0.5409761570631116  0.17712713002204725  1.0000
  O   O3        1.0  0.2193776564084305  0.9812061488408966  0.24022246368523006  1.0000
  O   O4        1.0  0.780622344240419  0.01879385135492271  0.7597775360314409  1.0000
  O   O5        1.0  0.5205846231042319  0.3822619966197144  0.331739383859592  1.0000
  O   O6        1.0  0.47941537744274865  0.6177380035748168  0.6682606162468009  1.0000
  S   S1        1.0  0.23774534472984887  0.5229265845034762  0.7843956728266893  1.0000
  S   S2        1.0  0.7622546547449532  0.47707341569846373  0.2156043268891432  1.0000
  S   S3        1.0  0.16659605728895177  0.87036678769705  0.20208274236200513  1.0000
  S   S4        1.0  0.8334039432580289  0.12963321249748117  0.7979172577443877  1.0000
  S   S5        1.0  0.4207190848049141  0.2541450892710767  0.3214416032580055  1.0000
  S   S6        1.0  0.5792809145680194  0.7458549109295749  0.6785583968475487  1.0000
  Br  Br1       1.0  0.43585320212921486  0.534747613840956  0.12152026181302569  1.0000
  Br  Br2       1.0  0.5641467984177656  0.46525238635357513  0.8784797382933672  1.0000
  Br  Br3       1.0  0.056290783394498695  0.4875768870874099  0.39006470269722127  1.0000
  Br  Br4       1.0  0.943709217152482  0.5124231131071213  0.6099352974091715  1.0000
  I   I1        1.0  0.29722572147184567  0.3662705531321564  0.4600793669533978  1.0000
  I   I2        1.0  0.7027742790751349  0.6337294470623749  0.539920633152995  1.0000
  I   I3        1.0  0.8065914492961863  0.35251719609503307  0.9485718301478351  1.0000
  I   I4        1.0  0.1934085512507943  0.6474828040994981  0.051428169958557673  1.0000
