data_image0
_chemical_formula_structural       H50C38N2O16S4Cl4
_chemical_formula_sum              "H50 C38 N2 O16 S4 Cl4"
_cell_length_a       7.692626338990796
_cell_length_b       7.827382136842283
_cell_length_c       19.98037065432631
_cell_angle_alpha    90.19322522912515
_cell_angle_beta     96.79993013832927
_cell_angle_gamma    105.14336105606073

_space_group_name_H-M_alt    "P 1"
_space_group_IT_number       1

loop_
  _space_group_symop_operation_xyz
  'x, y, z'

loop_
  _atom_site_type_symbol
  _atom_site_label
  _atom_site_symmetry_multiplicity
  _atom_site_fract_x
  _atom_site_fract_y
  _atom_site_fract_z
  _atom_site_occupancy
  H   H1        1.0  0.2630408427350971  0.5454840913316209  0.3315199669669043  1.0000
  H   H2        1.0  0.7369591562005738  0.4545159086173493  0.6684800329799679  1.0000
  H   H3        1.0  0.3910519417068263  0.7638154772589398  0.3160616384129923  1.0000
  H   H4        1.0  0.6089480585302356  0.23618452269823742  0.6839383615316125  1.0000
  H   H5        1.0  0.054675928026384435  0.7246547377672282  0.3239291007335528  1.0000
  H   H6        1.0  0.9453240722106774  0.27534526218994915  0.6760708992110519  1.0000
  H   H7        1.0  0.09703049216595655  0.6808587703395241  0.4112328638639867  1.0000
  H   H8        1.0  0.9029695080711054  0.3191412296176533  0.5887671360806181  1.0000
  H   H9        1.0  0.9919692743944347  0.9336267976020093  0.43096550729468275  1.0000
  H   H10       1.0  0.008030726018232036  0.06637320241049995  0.5690344931542679  1.0000
  H   H11       1.0  0.9948609267035212  0.02472173895646963  0.34858412603287536  1.0000
  H   H12       1.0  0.005139073533540589  0.9752782610007078  0.6514158739117294  1.0000
  H   H13       1.0  0.2608392098305132  0.27810757134474207  0.39829582219485393  1.0000
  H   H14       1.0  0.7391607904065487  0.7218924286124352  0.6017041777497509  1.0000
  H   H15       1.0  0.04755327658331929  0.2656967471226972  0.4265583329650116  1.0000
  H   H16       1.0  0.9524467236537426  0.7343032528344802  0.5734416669795932  1.0000
  H   H17       1.0  0.16056712741201062  0.3931650355380461  0.5415142846173598  1.0000
  H   H18       1.0  0.8394328728250512  0.6068349644191312  0.4584857153272449  1.0000
  H   H19       1.0  0.35940011120694476  0.45804806664359216  0.5006669635685537  1.0000
  H   H20       1.0  0.6405998890301171  0.5419519333135852  0.4993330363760512  1.0000
  H   H21       1.0  0.4148285410005151  0.4662301031745053  0.6279114344283959  1.0000
  H   H22       1.0  0.5851714592365468  0.5337698967826721  0.3720885655162089  1.0000
  H   H23       1.0  0.3231512586508042  0.2313000611029389  0.6267243179151697  1.0000
  H   H24       1.0  0.6768487415862576  0.7686999388542384  0.373275682029435  1.0000
  H   H25       1.0  0.5803001738016924  0.23575483802427294  0.31465183219012877  1.0000
  H   H26       1.0  0.41969982513397847  0.7642451619246974  0.6853481677567433  1.0000
  H   H27       1.0  0.9422891777745086  0.3666851862125419  0.1256700797032865  1.0000
  H   H28       1.0  0.05771082246255324  0.6333148137446354  0.8743299202413183  1.0000
  H   H29       1.0  0.9403247582361084  0.1201558156868518  0.04560627478326296  1.0000
  H   H30       1.0  0.05967524217655829  0.8798441843256576  0.9543937256656877  1.0000
  H   H31       1.0  0.6930075033639679  0.7385793022553634  0.18497991303314223  1.0000
  H   H32       1.0  0.30699249687309405  0.26142069770181403  0.8150200869114624  1.0000
  H   H33       1.0  0.7034613684457867  0.985422290305324  0.26674159454617946  1.0000
  H   H34       1.0  0.29653863179127515  0.014577709651853265  0.7332584053984252  1.0000
  H   H35       1.0  0.47258256538403376  0.2408291801429586  0.08359001469973389  1.0000
  H   H36       1.0  0.5274174348530282  0.7591708198142189  0.916409985244871  1.0000
  H   H37       1.0  0.3838472378894957  0.950631599509897  0.01807870672958558  1.0000
  H   H38       1.0  0.6161527623475662  0.04936840044728026  0.9819212932150193  1.0000
  H   H39       1.0  0.1584113411526927  0.6850582217307292  0.1888419287725563  1.0000
  H   H40       1.0  0.8415886590843692  0.3149417782264482  0.8111580711720485  1.0000
  H   H41       1.0  0.24097317880099844  0.9749961757330962  0.25359159331553477  1.0000
  H   H42       1.0  0.7590268214360636  0.025003824224081202  0.74640840662907  1.0000
  H   H43       1.0  0.4327362283965287  0.041462722367280755  0.3770495678486455  1.0000
  H   H44       1.0  0.5672637718405333  0.9585372775898966  0.6229504320959592  1.0000
  H   H45       1.0  0.7078712525599349  0.06904573547657537  0.4629248015006458  1.0000
  H   H46       1.0  0.292128747677127  0.9309542644806018  0.537075198443959  1.0000
  H   H47       1.0  0.560506657785197  0.2093404104361971  0.4689055570347175  1.0000
  H   H48       1.0  0.43949334245186494  0.7906595895209801  0.5310944429098873  1.0000
  H   H49       1.0  0.7638977658811931  0.2871480050492061  0.4298976802755826  1.0000
  H   H50       1.0  0.2361022343558688  0.7128519949079712  0.5701023196690221  1.0000
  C   C1        1.0  0.3159260553630801  0.6809564305059352  0.35352267532324744  1.0000
  C   C2        1.0  0.6840739448739818  0.31904356945124224  0.6464773246213573  1.0000
  C   C3        1.0  0.15883287376386448  0.7503678893899116  0.36837759473275145  1.0000
  C   C4        1.0  0.8411671264731975  0.24963211056726578  0.6316224052118533  1.0000
  C   C5        1.0  0.07843249978159554  0.015822603079886588  0.39663363606505136  1.0000
  C   C6        1.0  0.9215675004554664  0.9841773968772908  0.6033663638795536  1.0000
  C   C7        1.0  0.15761896671439357  0.19922444688914942  0.42793651218197754  1.0000
  C   C8        1.0  0.8423810335226684  0.8007755530680278  0.5720634877626272  1.0000
  C   C9        1.0  0.2839105436322109  0.35428051836740204  0.5314067592641972  1.0000
  C   C10       1.0  0.716089456604851  0.6457194815897753  0.46859324068040753  1.0000
  C   C11       1.0  0.39539018480435767  0.3425665073515066  0.5978294106454997  1.0000
  C   C12       1.0  0.6046098154327043  0.6574334926056707  0.4021705892991052  1.0000
  C   C13       1.0  0.8235594955080818  0.18902808077116795  0.20022338217694166  1.0000
  C   C14       1.0  0.17644050472898015  0.8109719191860094  0.7997766177676632  1.0000
  C   C15       1.0  0.8901242509992514  0.22931387882102083  0.1385811615352867  1.0000
  C   C16       1.0  0.10987574923781042  0.7706861211361565  0.8614188384093181  1.0000
  C   C17       1.0  0.8875727347036978  0.09156920186829844  0.09372258711766718  1.0000
  C   C18       1.0  0.11242726553336418  0.9084307980888789  0.9062774128269377  1.0000
  C   C19       1.0  0.8139603810914698  0.9170984335269652  0.11104383383586544  1.0000
  C   C20       1.0  0.18603961914559206  0.08290156643021218  0.8889561661087394  1.0000
  C   C21       1.0  0.7486356295978971  0.8760829369146402  0.1730982741149056  1.0000
  C   C22       1.0  0.25136437063916495  0.12391706304253718  0.8269017258296993  1.0000
  C   C23       1.0  0.7549923175100185  0.013765819102118857  0.21825561566536636  1.0000
  C   C24       1.0  0.2450076814256525  0.9862341808468513  0.7817443842815058  1.0000
  C   C25       1.0  0.36449682510669185  0.12212064691378278  0.17237337788667348  1.0000
  C   C26       1.0  0.635503174004584  0.8778793530905195  0.8276266225645444  1.0000
  C   C27       1.0  0.40596114103214453  0.11864604116537313  0.1063644612134525  1.0000
  C   C28       1.0  0.5940388579035264  0.8813539587835971  0.8936355387334196  1.0000
  C   C29       1.0  0.3579713081614178  0.9574678718235399  0.07017240789446105  1.0000
  C   C30       1.0  0.6420286907742531  0.042532128125430245  0.929827592052411  1.0000
  C   C31       1.0  0.27202146730477866  0.80290650729359  0.10052433709400607  1.0000
  C   C32       1.0  0.7279785329322833  0.19709349266358728  0.8994756628505988  1.0000
  C   C33       1.0  0.2296647202478127  0.8061379084894964  0.1666055119102874  1.0000
  C   C34       1.0  0.7703352788634631  0.1938620915148058  0.8333944885409306  1.0000
  C   C35       1.0  0.2756094553392695  0.9677146875330084  0.20251829366520205  1.0000
  C   C36       1.0  0.7243905435964014  0.03228531241596186  0.79748170628167  1.0000
  C   C37       1.0  0.6529289747239465  0.17125127560468087  0.43750585652256907  1.0000
  C   C38       1.0  0.34707102421172453  0.8287487243442894  0.5624941434243032  1.0000
  N   N1        1.0  0.6073554254630987  0.3243755984564879  0.27294070977423956  1.0000
  N   N2        1.0  0.39264457477396325  0.6756244015006895  0.7270592901703652  1.0000
  O   O1        1.0  0.22106132498971115  0.9366344051563344  0.3844500512526353  1.0000
  O   O2        1.0  0.7789386754229556  0.0633655948561748  0.6155499491963152  1.0000
  O   O3        1.0  0.2345811903207813  0.1871208270171028  0.49584113088667936  1.0000
  O   O4        1.0  0.7654188089573787  0.8128791742550596  0.5041588690571833  1.0000
  O   O5        1.0  0.4342975314609459  0.6833238613602305  0.4144811277090804  1.0000
  O   O6        1.0  0.5657024689517208  0.31667613865227884  0.5855188727398701  1.0000
  O   O7        1.0  0.9169416788653718  0.3426182270433092  0.3212603208406774  1.0000
  O   O8        1.0  0.08305832137169003  0.6573817729138681  0.6787396791039274  1.0000
  O   O9        1.0  0.8721003969045371  0.5277289806640496  0.22257636937845332  1.0000
  O   O10       1.0  0.1278996033325249  0.4722710192931278  0.7774236305661515  1.0000
  O   O11       1.0  0.4725653909597987  0.4682482062927703  0.17421674068115636  1.0000
  O   O12       1.0  0.5274346079758723  0.5317517936562  0.8257832592657157  1.0000
  O   O13       1.0  0.2856246373225251  0.317920026755191  0.2628974168562176  1.0000
  O   O14       1.0  0.7143753629145368  0.6820799732019864  0.7371025830883872  1.0000
  O   O15       1.0  0.5603813072032349  0.10508990361669868  0.37169611627810833  1.0000
  O   O16       1.0  0.4396186930338271  0.8949100963404786  0.6283038836664965  1.0000
  S   S1        1.0  0.8213144911293715  0.3629723738256417  0.256406903838285  1.0000
  S   S2        1.0  0.1786855078062995  0.6370276261233286  0.7435930961085871  1.0000
  S   S3        1.0  0.42403027371287644  0.32538508875638816  0.2193165927807924  1.0000
  S   S4        1.0  0.5759697252227944  0.6746149111925821  0.7806834071660798  1.0000
  Cl  Cl1       1.0  0.79801566248604  0.745682201504471  0.053717090046722434  1.0000
  Cl  Cl2       1.0  0.20198433644963099  0.25431779844449937  0.9462829099001497  1.0000
  Cl  Cl3       1.0  0.21326424737978658  0.6056250247650987  0.05387831067128766  1.0000
  Cl  Cl4       1.0  0.7867357528572754  0.39437497519207876  0.9461216892733171  1.0000
