data_image0
_chemical_formula_structural       H76C64N8O16Cl4
_chemical_formula_sum              "H76 C64 N8 O16 Cl4"
_cell_length_a       5.7433493530195445
_cell_length_b       8.19358375009964
_cell_length_c       34.233241818663366
_cell_angle_alpha    91.19057610807353
_cell_angle_beta     92.83458141283086
_cell_angle_gamma    104.55345530301555

_space_group_name_H-M_alt    "P 1"
_space_group_IT_number       1

loop_
  _space_group_symop_operation_xyz
  'x, y, z'

loop_
  _atom_site_type_symbol
  _atom_site_label
  _atom_site_symmetry_multiplicity
  _atom_site_fract_x
  _atom_site_fract_y
  _atom_site_fract_z
  _atom_site_occupancy
  H   H1        1.0  0.8978411406057724  0.7676920328961364  0.1817621594816634  1.0000
  H   H2        1.0  0.10215885927415146  0.23230796685577432  0.8182378405191251  1.0000
  H   H3        1.0  0.6928886222736378  0.28722195661961547  0.22942226139642882  1.0000
  H   H4        1.0  0.3071113780451553  0.7127780443924486  0.7705777386001972  1.0000
  H   H5        1.0  0.1794160578245527  0.49802087239384  0.39076369820871154  1.0000
  H   H6        1.0  0.8205839420553712  0.5019791273580708  0.609236301792077  1.0000
  H   H7        1.0  0.8277418833262038  0.7254929401128273  0.1248613191846232  1.0000
  H   H8        1.0  0.1722581169925893  0.27450706089923704  0.8751386808120027  1.0000
  H   H9        1.0  0.8549567043299072  0.9126855868965789  0.09765748201628249  1.0000
  H   H10       1.0  0.14504329555001655  0.08731441285533183  0.902342517984506  1.0000
  H   H11       1.0  0.4895486371688901  0.14300850792103958  0.16896734976174443  1.0000
  H   H12       1.0  0.5104513627110336  0.8569914918308712  0.8310326502390439  1.0000
  H   H13       1.0  0.3870475650144158  0.8227346123026266  0.3616374522595369  1.0000
  H   H14       1.0  0.612952434865508  0.17726538744928422  0.6383625477412516  1.0000
  H   H15       1.0  0.36912127814978  0.030329529153015337  0.4247889514065463  1.0000
  H   H16       1.0  0.6308787217301437  0.9696704705988953  0.5752110485942422  1.0000
  H   H17       1.0  0.10808865745668336  0.10875145653955808  0.4247272606092345  1.0000
  H   H18       1.0  0.8919113428621098  0.8912485444725062  0.5752727393873915  1.0000
  H   H19       1.0  0.8843018320393923  0.574761592094609  0.4849364836789296  1.0000
  H   H20       1.0  0.11569816784053147  0.4252384076573017  0.5150635163218589  1.0000
  H   H21       1.0  0.016212080735469963  0.6502968668054758  0.3090182200426022  1.0000
  H   H22       1.0  0.9837879191444537  0.34970313294643485  0.6909817799581863  1.0000
  H   H23       1.0  0.49435587121929253  0.06105096831469687  0.10195120587244376  1.0000
  H   H24       1.0  0.5056441286606312  0.9389490314372139  0.8980487941283447  1.0000
  H   H25       1.0  0.2641098280413827  0.9595147083572734  0.13272480481276472  1.0000
  H   H26       1.0  0.7358901718385411  0.040485291394637336  0.8672751951880239  1.0000
  H   H27       1.0  0.14289743297420934  0.7109901735069053  0.08934594890462398  1.0000
  H   H28       1.0  0.8571025669057144  0.2890098262450053  0.9106540510961645  1.0000
  H   H29       1.0  0.15822711854325583  0.8949656685821916  0.061492086537057386  1.0000
  H   H30       1.0  0.8417728813366678  0.10503433116971904  0.9385079134637311  1.0000
  H   H31       1.0  0.7275478923874088  0.6660027966203014  0.054802315613840774  1.0000
  H   H32       1.0  0.272452107492515  0.33399720313160935  0.9451976843869477  1.0000
  H   H33       1.0  0.4900296806402917  0.5705083862609731  0.0842653469085059  1.0000
  H   H34       1.0  0.5099703192396321  0.42949161349093745  0.9157346530922825  1.0000
  H   H35       1.0  0.36278478915654944  0.18683992715470338  0.26360881885283843  1.0000
  H   H36       1.0  0.6372152107233743  0.8131600725972074  0.7363911811479501  1.0000
  H   H37       1.0  0.2149721761197561  0.04428408716356647  0.29891696888568553  1.0000
  H   H38       1.0  0.7850278237601677  0.9557159125883443  0.701083031115103  1.0000
  H   H39       1.0  0.3017908525385361  0.7565713029724072  0.4336944667706816  1.0000
  H   H40       1.0  0.6982091473413877  0.2434286967795036  0.5663055332301068  1.0000
  H   H41       1.0  0.09827752190410825  0.9119059526971206  0.2414177558459471  1.0000
  H   H42       1.0  0.9017224779758155  0.08809404705479029  0.7585822441548414  1.0000
  H   H43       1.0  0.7671465931811406  0.004054444137061154  0.3753549107244913  1.0000
  H   H44       1.0  0.23285340669878304  0.9959455556148494  0.6246450892762971  1.0000
  H   H45       1.0  0.3352316431675509  0.4285237879869923  0.31031900228120374  1.0000
  H   H46       1.0  0.6647683567123729  0.5714762117649184  0.6896809977195848  1.0000
  H   H47       1.0  0.5113511936914227  0.7246807171232086  0.9582970838905686  1.0000
  H   H48       1.0  0.48864880618850104  0.275319282628702  0.04170291611021984  1.0000
  H   H49       1.0  0.6297219807840271  0.6205976594467848  0.9967673659128803  1.0000
  H   H50       1.0  0.3702780190958967  0.379402340305126  0.0032326340879082816  1.0000
  H   H51       1.0  0.7537815449166136  0.8384699931965499  0.9907110080167418  1.0000
  H   H52       1.0  0.24621845496331016  0.16153000655536084  0.009288991984046653  1.0000
  H   H53       1.0  0.7022344972661285  0.24682091736689837  0.312159159716177  1.0000
  H   H54       1.0  0.29776550261379536  0.7531790823850124  0.6878408402846115  1.0000
  H   H55       1.0  0.7105322738930723  0.4301347244765427  0.3421857229746046  1.0000
  H   H56       1.0  0.28946772598685144  0.5698652752753681  0.6578142770261839  1.0000
  H   H57       1.0  0.8594374325151672  0.17551498771706084  0.0428245609732192  1.0000
  H   H58       1.0  0.1405625673647565  0.8244850120348498  0.9571754390275693  1.0000
  H   H59       1.0  0.6058693258809161  0.7640929142700015  0.303562671526908  1.0000
  H   H60       1.0  0.39413067399900764  0.23590708548190925  0.6964373284738804  1.0000
  H   H61       1.0  0.9480723762025217  0.440080640097001  0.16850865762658776  1.0000
  H   H62       1.0  0.05192762411627134  0.5599193609150632  0.8314913423700382  1.0000
  H   H63       1.0  0.1717609435102042  0.5792438084387014  0.1430034242882752  1.0000
  H   H64       1.0  0.8282390563697195  0.4207561913132093  0.8569965757125133  1.0000
  H   H65       1.0  0.3120597249325821  0.32376933033021693  0.11869624347087543  1.0000
  H   H66       1.0  0.6879402749473416  0.6762306694216937  0.881303756529913  1.0000
  H   H67       1.0  0.07409022218808851  0.19227534583289305  0.1422459578048423  1.0000
  H   H68       1.0  0.9259097781307046  0.8077246551791712  0.8577540421917836  1.0000
  H   H69       1.0  0.3306908665774412  0.727249837183972  0.2080428071614059  1.0000
  H   H70       1.0  0.6693091333024827  0.2727501625679388  0.7919571928393826  1.0000
  H   H71       1.0  0.12653345853115336  0.5799440180622708  0.23444019942762406  1.0000
  H   H72       1.0  0.8734665413487704  0.42005598168964003  0.7655598005731644  1.0000
  H   H73       1.0  0.4958424585094795  0.4907865362602376  0.18099407264376124  1.0000
  H   H74       1.0  0.5041575413704443  0.5092134634916732  0.8190059273570273  1.0000
  H   H75       1.0  0.2793943720637632  0.3441638055086101  0.20595486650334874  1.0000
  H   H76       1.0  0.7206056282550299  0.6558361955034542  0.7940451334932772  1.0000
  C   C1        1.0  0.6769451078750204  0.9428296955969764  0.1695580809387577  1.0000
  C   C2        1.0  0.32305489200490345  0.057170304154934314  0.8304419190620308  1.0000
  C   C3        1.0  0.8516768100896165  0.882770650840679  0.19118791144079875  1.0000
  C   C4        1.0  0.14832318979030726  0.11722934891123181  0.8088120885599898  1.0000
  C   C5        1.0  0.9083403649514928  0.1100797580904999  0.2397294339582079  1.0000
  C   C6        1.0  0.09165963536730022  0.8899202429215644  0.760270566038418  1.0000
  C   C7        1.0  0.454798381702877  0.38682563249640306  0.4135837109850556  1.0000
  C   C8        1.0  0.5452016186159162  0.6131743685156612  0.5864162890115705  1.0000
  C   C9        1.0  0.7336344782442534  0.17103839567480317  0.21907378332300462  1.0000
  C   C10       1.0  0.26636552163567045  0.8289616040771076  0.780926216677784  1.0000
  C   C11       1.0  0.3322468541469567  0.5143326039232717  0.41186212751468215  1.0000
  C   C12       1.0  0.6677531457329671  0.4856673958286389  0.5881378724861063  1.0000
  C   C13       1.0  0.6501694315380471  0.4098493146894535  0.4412297597507979  1.0000
  C   C14       1.0  0.3498305683418767  0.5901506850624572  0.5587702402499906  1.0000
  C   C15       1.0  0.37180068893904766  0.23296107445090242  0.38515482008517565  1.0000
  C   C16       1.0  0.6281993109408761  0.7670389253010084  0.6148451799156127  1.0000
  C   C17       1.0  0.7267660994299568  0.8016338767540954  0.10868479719180593  1.0000
  C   C18       1.0  0.2732339008888362  0.19836612425796887  0.8913152028048201  1.0000
  C   C19       1.0  0.6202776785757521  0.0889498262848237  0.18456981703610117  1.0000
  C   C20       1.0  0.37972232130417166  0.9110501734670869  0.8154301829646873  1.0000
  C   C21       1.0  0.20273613584963535  0.8305059614379001  0.35710613363902843  1.0000
  C   C22       1.0  0.7972638644691578  0.1694940395741641  0.6428938663575975  1.0000
  C   C23       1.0  0.6061985367666668  0.6831175835502836  0.46075701962677373  1.0000
  C   C24       1.0  0.3938014631132569  0.3168824162016272  0.5392429803740146  1.0000
  C   C25       1.0  0.40674775489047843  0.787280354860071  0.014070483846733622  1.0000
  C   C26       1.0  0.5932522449894454  0.21271964489183975  0.9859295161540548  1.0000
  C   C27       1.0  0.23882093864273202  0.07453658858090913  0.40609750896965013  1.0000
  C   C28       1.0  0.761179062980377  0.925463411178937  0.5939024910287378  1.0000
  C   C29       1.0  0.7298626603349164  0.5578511895682812  0.46423502954354073  1.0000
  C   C30       1.0  0.2701373395450074  0.44214881018362956  0.5357649704572478  1.0000
  C   C31       1.0  0.017934768696528793  0.7455591593052764  0.33153265394128495  1.0000
  C   C32       1.0  0.982065231183395  0.2544408404466344  0.6684673460595035  1.0000
  C   C33       1.0  0.3988887419015906  0.9372690426377945  0.11300031069467699  1.0000
  C   C34       1.0  0.6011112579783332  0.06273095711411622  0.8869996893061116  1.0000
  C   C35       1.0  0.2644993275346624  0.8257625577382995  0.07875633710002004  1.0000
  C   C36       1.0  0.7355006723452613  0.1742374420136112  0.9212436629007683  1.0000
  C   C37       1.0  0.5944894994833752  0.6923518813931885  0.07405416315998266  1.0000
  C   C38       1.0  0.40551050039654857  0.30764811835872224  0.9259458368408058  1.0000
  C   C39       1.0  0.23882533760796099  0.17205122558898056  0.28759986383037345  1.0000
  C   C40       1.0  0.7611746622719628  0.8279487741629301  0.712400136170415  1.0000
  C   C41       1.0  0.4024413498829049  0.6606891692673917  0.4354593082557054  1.0000
  C   C42       1.0  0.5975586499970189  0.3393108304845191  0.5645406917450831  1.0000
  C   C43       1.0  0.9661947762291229  0.9644015314204563  0.22566799769173174  1.0000
  C   C44       1.0  0.03380522365080082  0.03559846833145449  0.7743320023090567  1.0000
  C   C45       1.0  0.8772071349175706  0.9235515360959918  0.3651354528107924  1.0000
  C   C46       1.0  0.12279286496235317  0.07644846365591887  0.6348645471899961  1.0000
  C   C47       1.0  0.34639044651513806  0.3033736302302566  0.31959804646005335  1.0000
  C   C48       1.0  0.6536095533647858  0.696626369521654  0.6804019535407352  1.0000
  C   C49       1.0  0.585579997382217  0.7382267539071172  0.9885734821131276  1.0000
  C   C50       1.0  0.4144200024977068  0.2617732458447936  0.011426517887660952  1.0000
  C   C51       1.0  0.6041220854054185  0.30240190727338684  0.3331914914580442  1.0000
  C   C52       1.0  0.3958779144745052  0.6975980924785239  0.6668085085427443  1.0000
  C   C53       1.0  0.12985695273025494  0.4579969936534262  0.15767993120636062  1.0000
  C   C54       1.0  0.870143047149669  0.5420030060984846  0.842320068794428  1.0000
  C   C55       1.0  0.12926267349283743  0.31551152837985597  0.1284891329052206  1.0000
  C   C56       1.0  0.8707373263870862  0.6844884713720548  0.8715108670955678  1.0000
  C   C57       1.0  0.9660025689136408  0.30910465734196096  0.09220173256569139  1.0000
  C   C58       1.0  0.03399743096628301  0.6908953424099498  0.9077982674350971  1.0000
  C   C59       1.0  0.4933363080919969  0.6278487449626202  0.25517285798747774  1.0000
  C   C60       1.0  0.5066636935311121  0.372151254797226  0.7448271420109102  1.0000
  C   C61       1.0  0.30466966586611655  0.6041373072699902  0.22185187014862923  1.0000
  C   C62       1.0  0.6953303340138072  0.3958626924819204  0.7781481298521592  1.0000
  C   C63       1.0  0.31333446637372664  0.466806013754533  0.19186068444655505  1.0000
  C   C64       1.0  0.6866655335061971  0.5331939859973778  0.8081393155542335  1.0000
  N   N1        1.0  0.10986243947996446  0.9418095749022978  0.3787283622086418  1.0000
  N   N2        1.0  0.8901375603999593  0.05819042484961302  0.6212716377921467  1.0000
  N   N3        1.0  0.5637333660392533  0.8576265478019236  0.13460856938596852  1.0000
  N   N4        1.0  0.43626663384067044  0.1423734519499871  0.8653914306148199  1.0000
  N   N5        1.0  0.43086324483513455  0.7746925401059688  0.05321597806687661  1.0000
  N   N6        1.0  0.5691367550447892  0.22530745964594198  0.9467840219339119  1.0000
  N   N7        1.0  0.8162384137237471  0.8046018961792601  0.3369412908762963  1.0000
  N   N8        1.0  0.18376158615617663  0.19539810357265056  0.663058709124492  1.0000
  O   O1        1.0  0.5681730775089462  0.19575907366021106  0.3665777435955362  1.0000
  O   O2        1.0  0.4318269223709774  0.8042409260916996  0.6334222564052524  1.0000
  O   O3        1.0  0.21429691230900796  0.26818917639021594  0.3549975986798788  1.0000
  O   O4        1.0  0.7857030875709158  0.7318108233616948  0.6450024013209097  1.0000
  O   O5        1.0  0.013812617354490795  0.20021811672471518  0.27332083337263574  1.0000
  O   O6        1.0  0.9861873825254329  0.7997818830271957  0.7266791666281527  1.0000
  O   O7        1.0  0.23969843078209443  0.8457450582346494  0.9994509650239645  1.0000
  O   O8        1.0  0.7603015690978294  0.15425494151726135  0.0005490349768240395  1.0000
  O   O9        1.0  0.9602387130586225  0.17564135397619393  0.06883184714347233  1.0000
  O   O10       1.0  0.039761286821301305  0.8243586457757168  0.9311681528573161  1.0000
  O   O11       1.0  0.4706013362842864  0.7453806499417517  0.28128857873215213  1.0000
  O   O12       1.0  0.5293986640345067  0.2546193510703127  0.7187114212644738  1.0000
  O   O13       1.0  0.6486015650348559  0.5476683144830462  0.25844650985903966  1.0000
  O   O14       1.0  0.3513984348450678  0.45233168526886447  0.7415534901417488  1.0000
  O   O15       1.0  0.8514406410703247  0.41461848253953654  0.08490937942915375  1.0000
  O   O16       1.0  0.14855935880959908  0.5853815172123741  0.9150906205716346  1.0000
  Cl  Cl1       1.0  0.8013922815450157  0.2545947478417691  0.44980892768521596  1.0000
  Cl  Cl2       1.0  0.19860771833490812  0.7454052519101416  0.5501910723155725  1.0000
  Cl  Cl3       1.0  0.7106622753603655  0.8692476337258656  0.4881379115820399  1.0000
  Cl  Cl4       1.0  0.28933772495842763  0.1307523672861987  0.511862088414586  1.0000
