data_image0
_chemical_formula_structural       H12C12N4O2I4
_chemical_formula_sum              "H12 C12 N4 O2 I4"
_cell_length_a       7.619114731565615
_cell_length_b       7.588924596898337
_cell_length_c       8.18984338550253
_cell_angle_alpha    80.85441956322825
_cell_angle_beta     71.7916248424316
_cell_angle_gamma    86.30543045016569

_space_group_name_H-M_alt    "P 1"
_space_group_IT_number       1

loop_
  _space_group_symop_operation_xyz
  'x, y, z'

loop_
  _atom_site_type_symbol
  _atom_site_label
  _atom_site_symmetry_multiplicity
  _atom_site_fract_x
  _atom_site_fract_y
  _atom_site_fract_z
  _atom_site_occupancy
  H   H1        1.0  0.16648987237311139  0.07812909552826412  0.8234095170293206  1.0000
  H   H2        1.0  0.8335101271775694  0.9218709039820856  0.17659048341405312  1.0000
  H   H3        1.0  0.3648742232308265  0.9790896866011171  0.5466090099113411  1.0000
  H   H4        1.0  0.6351257763198543  0.020910312909232814  0.45339099053203263  1.0000
  H   H5        1.0  0.00893214567259776  0.2940545212997282  0.2866043890134758  1.0000
  H   H6        1.0  0.9910678537867804  0.7059454795313939  0.7133956114276337  1.0000
  H   H7        1.0  0.8187537215641971  0.36826106153470484  0.5738345143691204  1.0000
  H   H8        1.0  0.18124627798648377  0.631738937975645  0.4261654860742534  1.0000
  H   H9        1.0  0.4040202156410255  0.1258918473301616  0.9597072387643928  1.0000
  H   H10       1.0  0.5959797852239834  0.8741081521885963  0.04029276167177685  1.0000
  H   H11       1.0  0.238009740337893  0.27409518649400677  0.07045265607610156  1.0000
  H   H12       1.0  0.7619902592127877  0.7259048130163429  0.9295473443672722  1.0000
  C   C1        1.0  0.13809464489938375  0.12228874081522927  0.7008579255565421  1.0000
  C   C2        1.0  0.861905354651297  0.8777112586951206  0.29914207488683164  1.0000
  C   C3        1.0  0.24909886073838564  0.07015367940307986  0.5462259470984246  1.0000
  C   C4        1.0  0.7509011388122951  0.9298463201072701  0.45377405334494914  1.0000
  C   C5        1.0  0.20944948548052986  0.13434659855800477  0.3915264387809166  1.0000
  C   C6        1.0  0.790550514486926  0.8656534011454609  0.6084735603630844  1.0000
  C   C7        1.0  0.05291937896299241  0.24399583274610212  0.40020869270498494  1.0000
  C   C8        1.0  0.9470806205876884  0.7560041667642478  0.5997913077383887  1.0000
  C   C9        1.0  0.9446261260569808  0.28743734195047427  0.5604214819630443  1.0000
  C   C10       1.0  0.05537387349370003  0.7125626575598754  0.4395785184803295  1.0000
  C   C11       1.0  0.3341191881160587  0.07630959530438312  0.22590929399307105  1.0000
  C   C12       1.0  0.6658808117600947  0.9236904057198547  0.7740907051486657  1.0000
  N   N1        1.0  0.9890782773896176  0.2287142300723118  0.7060224843699433  1.0000
  N   N2        1.0  0.01092172257783841  0.7712857696311539  0.29397751477405765  1.0000
  N   N3        1.0  0.3147480667914742  0.15994886388142235  0.07539476909534044  1.0000
  N   N4        1.0  0.6852519326679037  0.8400511369496998  0.9246052313457691  1.0000
  O   O1        1.0  0.4477926754552631  0.9511610335192495  0.2344595849863849  1.0000
  O   O2        1.0  0.552207324512193  0.048838966184216244  0.7655404141576161  1.0000
  I   I1        1.0  0.8124173993294714  0.3259355610103  0.9739476447296613  1.0000
  I   I2        1.0  0.1875826006379846  0.6740644386931657  0.026052354414339604  1.0000
  I   I3        1.0  0.6086860559199421  0.45410845088860313  0.2883380221863855  1.0000
  I   I4        1.0  0.3913139435394359  0.545891549942519  0.7116619782547241  1.0000
