data_image0
_chemical_formula_structural       H22C14O8P2S2
_chemical_formula_sum              "H22 C14 O8 P2 S2"
_cell_length_a       6.888910072052423
_cell_length_b       8.416375041525725
_cell_length_c       9.042261786798347
_cell_angle_alpha    76.15576689254338
_cell_angle_beta     71.24080056966848
_cell_angle_gamma    74.85155699838724

_space_group_name_H-M_alt    "P 1"
_space_group_IT_number       1

loop_
  _space_group_symop_operation_xyz
  'x, y, z'

loop_
  _atom_site_type_symbol
  _atom_site_label
  _atom_site_symmetry_multiplicity
  _atom_site_fract_x
  _atom_site_fract_y
  _atom_site_fract_z
  _atom_site_occupancy
  H   H1        1.0  0.8039071888864572  0.006026654189230887  0.09100622515409282  1.0000
  H   H2        1.0  0.1960928124041099  0.9939733450368538  0.9089937741008478  1.0000
  H   H3        1.0  0.20107807780056344  0.5698949002684883  0.2815701132197917  1.0000
  H   H4        1.0  0.7989219230650301  0.430105098738923  0.7184298872203079  1.0000
  H   H5        1.0  0.3875969749190357  0.9888894897275817  0.12205970317666347  1.0000
  H   H6        1.0  0.6124030249196597  0.011110509493492312  0.8779402960827348  1.0000
  H   H7        1.0  0.7548127199316352  0.8078237242385045  0.45483186585011226  1.0000
  H   H8        1.0  0.2451872790818705  0.19217627599367895  0.5451681346007311  1.0000
  H   H9        1.0  0.5291729364528984  0.8451559086675278  0.7204074616611279  1.0000
  H   H10       1.0  0.470827062985581  0.15484409178332886  0.2795925376045565  1.0000
  H   H11       1.0  0.7129439500868039  0.47812625599604247  0.017281681738769764  1.0000
  H   H12       1.0  0.28705605077878943  0.521873743011369  0.9827183187013299  1.0000
  H   H13       1.0  0.8390712366095733  0.6280695484856728  0.04590332534860634  1.0000
  H   H14       1.0  0.16092876468099385  0.3719304507404119  0.9540966739063343  1.0000
  H   H15       1.0  0.5788849585699248  0.6930081280837661  0.02333409974577786  1.0000
  H   H16       1.0  0.42111504189545246  0.30699187215342805  0.9766659007006079  1.0000
  H   H17       1.0  0.7128955222176397  0.30688293394865945  0.4447947491166684  1.0000
  H   H18       1.0  0.2871044782477376  0.6931170662885345  0.5552052513297175  1.0000
  H   H19       1.0  0.9203928475934248  0.40012869973581855  0.3034683923140268  1.0000
  H   H20       1.0  0.0796071522452709  0.5998712994852555  0.6965316069453715  1.0000
  H   H21       1.0  0.7933141904264278  0.27343542360464423  0.24188023409986503  1.0000
  H   H22       1.0  0.20668580901205158  0.7265645768462123  0.7581197651658195  1.0000
  C   C1        1.0  0.28608970435625664  0.004966077423264024  0.24002491105865717  1.0000
  C   C2        1.0  0.7139102961091207  0.9950339228139301  0.7599750893877286  1.0000
  C   C3        1.0  0.10974950454738502  0.9344012993124211  0.2988656421585082  1.0000
  C   C4        1.0  0.8902504944661205  0.06559870091976247  0.7011343582923352  1.0000
  C   C5        1.0  0.9743895464030473  0.9530309931784343  0.4543951293161372  1.0000
  C   C6        1.0  0.02561045406232991  0.046969007058759664  0.5456048711302486  1.0000
  C   C7        1.0  0.7932290752959993  0.8814708936468004  0.521339890451044  1.0000
  C   C8        1.0  0.20677092516937798  0.11852910659039352  0.4786601099953418  1.0000
  C   C9        1.0  0.6654967292950789  0.9025924217336255  0.6705345493858157  1.0000
  C   C10       1.0  0.33450327157051457  0.09740757727378592  0.3294654510542838  1.0000
  C   C11       1.0  0.6908899607916672  0.58941594134166  0.06826565252685934  1.0000
  C   C12       1.0  0.3091100396737101  0.4105840588955341  0.9317343479195264  1.0000
  C   C13       1.0  0.7741616142489142  0.36085641936332513  0.3204696485989926  1.0000
  C   C14       1.0  0.22583838476459142  0.6391435808688585  0.6795303518518507  1.0000
  O   O1        1.0  0.22339698373236  0.8334290846524457  0.014331202080733968  1.0000
  O   O2        1.0  0.7766030156813618  0.1665709143499553  0.985668798363823  1.0000
  O   O3        1.0  0.8289585615648314  0.8886322734728818  0.16302641343290367  1.0000
  O   O4        1.0  0.17104143784889067  0.1113677255295191  0.8369735870116534  1.0000
  O   O5        1.0  0.05543196868313996  0.637260934009941  0.26088372203396815  1.0000
  O   O6        1.0  0.9445680322072108  0.3627390664459262  0.7391162772272588  1.0000
  O   O7        1.0  0.3911210335009381  0.46811448007055423  0.304922298316363  1.0000
  O   O8        1.0  0.6088789659375413  0.5318855203803023  0.6950777009493214  1.0000
  P   P1        1.0  0.05967530626261467  0.8210659138690573  0.1737607956897506  1.0000
  P   P2        1.0  0.9403246931758648  0.1789340865817994  0.8262392035759338  1.0000
  S   S1        1.0  0.5832858827649122  0.5425219401497742  0.27920755095354366  1.0000
  S   S2        1.0  0.41671411624859356  0.45747806008240927  0.7207924494972997  1.0000
