data_image0
_chemical_formula_structural       H36C52N8O8Br4
_chemical_formula_sum              "H36 C52 N8 O8 Br4"
_cell_length_a       7.273983251031903
_cell_length_b       12.55082893623831
_cell_length_c       14.445856310478895
_cell_angle_alpha    114.21541207173576
_cell_angle_beta     93.20178901211167
_cell_angle_gamma    98.80978085476993

_space_group_name_H-M_alt    "P 1"
_space_group_IT_number       1

loop_
  _space_group_symop_operation_xyz
  'x, y, z'

loop_
  _atom_site_type_symbol
  _atom_site_label
  _atom_site_symmetry_multiplicity
  _atom_site_fract_x
  _atom_site_fract_y
  _atom_site_fract_z
  _atom_site_occupancy
  H   H1        1.0  0.4923906005660318  0.7034544300049465  0.8016435336620319  1.0000
  H   H2        1.0  0.5076093995304206  0.29654556991330755  0.19835646630084433  1.0000
  H   H3        1.0  0.27750111073707767  0.904512462582291  0.45955964741775235  1.0000
  H   H4        1.0  0.7224988895710085  0.09548753771504033  0.5404403533106741  1.0000
  H   H5        1.0  0.20280019078263672  0.5838430804592616  0.5782612447951844  1.0000
  H   H6        1.0  0.7971998093138155  0.4161569194589923  0.42173875516769177  1.0000
  H   H7        1.0  0.06338024571563593  0.5411438577517563  0.40146080709872317  1.0000
  H   H8        1.0  0.9366197543808165  0.4588561421664977  0.598539192864153  1.0000
  H   H9        1.0  0.09815377904949149  0.705734759707571  0.3450870460984062  1.0000
  H   H10       1.0  0.9018462210469608  0.29426524021068295  0.65491295386447  1.0000
  H   H11       1.0  0.09420282714781025  0.19836351560028515  0.28611808070992933  1.0000
  H   H12       1.0  0.9057971729486421  0.8016364843179689  0.7138819192529469  1.0000
  H   H13       1.0  0.9087506427728256  0.06731190003501539  0.04195043717605818  1.0000
  H   H14       1.0  0.09124935616335766  0.9326881002659043  0.9580495635671572  1.0000
  H   H15       1.0  0.763037672309309  0.39310726738290924  0.9587593482421587  1.0000
  H   H16       1.0  0.23696232778714332  0.6068927325353447  0.0412406517207175  1.0000
  H   H17       1.0  0.6913456308364868  0.18842355226979948  0.8267704906239386  1.0000
  H   H18       1.0  0.3086543692599655  0.8115764476484543  0.1732295093389376  1.0000
  H   H19       1.0  0.7576638825070051  0.020581680787308956  0.866883978950128  1.0000
  H   H20       1.0  0.24233611779587  0.9794183199366499  0.13311602101161765  1.0000
  H   H21       1.0  0.5702642536635854  0.9084951983542348  0.9553374084612644  1.0000
  H   H22       1.0  0.429735746432867  0.09150480156401909  0.044662591501611816  1.0000
  H   H23       1.0  0.7279907619032265  0.9732493267193667  0.13498819007459084  1.0000
  H   H24       1.0  0.27200923819322587  0.026750673198887326  0.8650118098882854  1.0000
  H   H25       1.0  0.7629165508801236  0.6040073099296148  0.050562890301782154  1.0000
  H   H26       1.0  0.23708344921632865  0.395992689988639  0.9494371096610941  1.0000
  H   H27       1.0  0.601118058953822  0.5562786122196278  0.8761965351996218  1.0000
  H   H28       1.0  0.3988819411426303  0.44372138769862624  0.12380346476325445  1.0000
  H   H29       1.0  0.2821396035551336  0.40283518165191523  0.4198463110079283  1.0000
  H   H30       1.0  0.7178603965413188  0.5971648182663388  0.5801536889549479  1.0000
  H   H31       1.0  0.23983778710552486  0.1088175982696775  0.5649044083986975  1.0000
  H   H32       1.0  0.7601622116190246  0.891182401652165  0.4350955915789677  1.0000
  H   H33       1.0  0.09253488979633699  0.06046517695283614  0.38748906078161416  1.0000
  H   H34       1.0  0.9074651103001153  0.9395348229654178  0.612510939181262  1.0000
  H   H35       1.0  0.44015427945566304  0.46823551139165104  0.6007141555228811  1.0000
  H   H36       1.0  0.5598457206407892  0.5317644885266029  0.39928584443999504  1.0000
  C   C1        1.0  0.3211405729327718  0.7663509693655093  0.6184512091405119  1.0000
  C   C2        1.0  0.6788594271636808  0.23364903055274475  0.3815487908223644  1.0000
  C   C3        1.0  0.40477862752726174  0.7843187813047102  0.7219343252561806  1.0000
  C   C4        1.0  0.5952213725691907  0.21568121861354386  0.2780656747066957  1.0000
  C   C5        1.0  0.339258962924735  0.8563010707418861  0.5834906150094075  1.0000
  C   C6        1.0  0.6607410371717173  0.14369892917636773  0.4165093849534687  1.0000
  C   C7        1.0  0.2591690109001874  0.8341770861877577  0.48582827732352846  1.0000
  C   C8        1.0  0.740830989196265  0.1658229137304962  0.5141717226393477  1.0000
  C   C9        1.0  0.21851470675448567  0.6533331169446397  0.5510851632812227  1.0000
  C   C10       1.0  0.7814852933419665  0.3466668829736142  0.44891483668165344  1.0000
  C   C11       1.0  0.1380106789152739  0.6300202002628659  0.4534485833575128  1.0000
  C   C12       1.0  0.8619893211811785  0.36997979965538796  0.5465514166053633  1.0000
  C   C13       1.0  0.15876938657861303  0.7211571990314977  0.42109085357719606  1.0000
  C   C14       1.0  0.8412306135178393  0.27884280088675634  0.5789091463856801  1.0000
  C   C15       1.0  0.9232495878690403  0.2552574094986264  0.10011689734739238  1.0000
  C   C16       1.0  0.07675041222741207  0.7447425904196275  0.8998831026154839  1.0000
  C   C17       1.0  0.021938343676524592  0.2757704113810901  0.20134814171821824  1.0000
  C   C18       1.0  0.9780616564199277  0.7242295885371638  0.798651858244658  1.0000
  C   C19       1.0  0.8762536116809146  0.13805847653366096  0.0226988684690117  1.0000
  C   C20       1.0  0.12374638841553756  0.861941523384593  0.9773011314938644  1.0000
  C   C21       1.0  0.7959262349016206  0.32184494114901074  0.977378437896926  1.0000
  C   C22       1.0  0.2040737651948317  0.6781550587692431  0.0226215620659501  1.0000
  C   C23       1.0  0.7544375783852618  0.2051237879295331  0.9026256785825763  1.0000
  C   C24       1.0  0.2455624217111907  0.7948762119887208  0.09737432138029997  1.0000
  C   C25       1.0  0.8792797234596647  0.34659964829696926  0.07525907973343551  1.0000
  C   C26       1.0  0.12072027663678789  0.6534003516212847  0.9247409202294407  1.0000
  C   C27       1.0  0.7932197513746057  0.11215490506358053  0.9250488988881977  1.0000
  C   C28       1.0  0.20678024893348054  0.8878450952337507  0.0749511018402286  1.0000
  C   C29       1.0  0.7614843824168837  0.79263834979816  0.1046169850474398  1.0000
  C   C30       1.0  0.23851561767956858  0.20736165012009397  0.8953830149154364  1.0000
  C   C31       1.0  0.6160695530319027  0.8451621399506081  0.9809316060429074  1.0000
  C   C32       1.0  0.38393044706454976  0.1548378599676458  0.01906839391996871  1.0000
  C   C33       1.0  0.8639841622020406  0.8253848906586149  0.20251398010029728  1.0000
  C   C34       1.0  0.13601583789441182  0.1746151092596391  0.7974860198625789  1.0000
  C   C35       1.0  0.705186710325812  0.8804477574273121  0.0795218636074401  1.0000
  C   C36       1.0  0.29481328977064025  0.11955224249094179  0.9204781363554361  1.0000
  C   C37       1.0  0.721870767060484  0.6735289297416136  0.03206212799343839  1.0000
  C   C38       1.0  0.27812923303596837  0.32647107017664034  0.9679378719694378  1.0000
  C   C39       1.0  0.631997192223794  0.6473463249325655  0.9356855497164485  1.0000
  C   C40       1.0  0.3680028078726583  0.35265367498568845  0.06431445024642769  1.0000
  C   C41       1.0  0.3542536210459793  0.291456110578066  0.5947121628594613  1.0000
  C   C42       1.0  0.645746379050473  0.708543889340188  0.4052878371034149  1.0000
  C   C43       1.0  0.2794975684031017  0.34165367476439923  0.4560126489848043  1.0000
  C   C44       1.0  0.7205024316933507  0.6583463251538548  0.5439873509780719  1.0000
  C   C45       1.0  0.2534494677239681  0.1758829969862992  0.5350832680555694  1.0000
  C   C46       1.0  0.7465505323724843  0.8241170029319547  0.4649167319073068  1.0000
  C   C47       1.0  0.17177438820574742  0.1494030900183331  0.4368801231775482  1.0000
  C   C48       1.0  0.828225611890705  0.8505969098999209  0.5631198767853279  1.0000
  C   C49       1.0  0.3663447846677229  0.37699670969535237  0.5550390012231274  1.0000
  C   C50       1.0  0.6336552154287294  0.6230032902229015  0.44496099873974876  1.0000
  C   C51       1.0  0.4464013914309469  0.3215948305759487  0.694490674927969  1.0000
  C   C52       1.0  0.5535986086655055  0.6784051693423053  0.3055093250349073  1.0000
  N   N1        1.0  0.5821738640081733  0.731673679061906  0.9103595689475839  1.0000
  N   N2        1.0  0.41782613608827895  0.268326320856348  0.08964043101529226  1.0000
  N   N3        1.0  0.9525959093180448  0.8539605044642272  0.2817090452853499  1.0000
  N   N4        1.0  0.047404090778407584  0.14603949545402667  0.7182909546775263  1.0000
  N   N5        1.0  0.1860696783595743  0.230177302905639  0.39786069777408156  1.0000
  N   N6        1.0  0.8139303217368781  0.7698226970126149  0.6021393021887946  1.0000
  N   N7        1.0  0.5247952805267702  0.3462009146034108  0.7754342501267908  1.0000
  N   N8        1.0  0.47520471956968224  0.6537990853148432  0.22456574983608532  1.0000
  O   O1        1.0  0.43352796536569865  0.6839218397646062  0.7257446474573105  1.0000
  O   O2        1.0  0.5664720347307537  0.3160781601536477  0.2742553525055657  1.0000
  O   O3        1.0  0.44201253979600785  0.8824482405631375  0.7963124046534416  1.0000
  O   O4        1.0  0.5579874603004445  0.11755175935511636  0.20368759530943473  1.0000
  O   O5        1.0  0.02735745601861567  0.17557978866906424  0.21202890598929272  1.0000
  O   O6        1.0  0.9726425440778367  0.8244202112491896  0.7879710939735834  1.0000
  O   O7        1.0  0.09440322346607473  0.37535060868844267  0.26807571352483406  1.0000
  O   O8        1.0  0.9055967766303776  0.6246493912298113  0.7319242864380421  1.0000
  Br  Br1       1.0  0.4818199970931317  0.012607554583326044  0.662210409353694  1.0000
  Br  Br2       1.0  0.5181800030033206  0.9873924453349279  0.33778959060918207  1.0000
  Br  Br3       1.0  0.9243140216451  0.510076752927268  0.16993252477861862  1.0000
  Br  Br4       1.0  0.07568597845135233  0.48992324699098616  0.8300674751842576  1.0000
