data_image0
_chemical_formula_structural       H64B20C32N8O8S4
_chemical_formula_sum              "H64 B20 C32 N8 O8 S4"
_cell_length_a       8.732334739343477
_cell_length_b       10.630426898588066
_cell_length_c       15.059635472046063
_cell_angle_alpha    98.85741510671613
_cell_angle_beta     105.02913652160606
_cell_angle_gamma    100.11107673915201

_space_group_name_H-M_alt    "P 1"
_space_group_IT_number       1

loop_
  _space_group_symop_operation_xyz
  'x, y, z'

loop_
  _atom_site_type_symbol
  _atom_site_label
  _atom_site_symmetry_multiplicity
  _atom_site_fract_x
  _atom_site_fract_y
  _atom_site_fract_z
  _atom_site_occupancy
  H   H1        1.0  0.4526888288853488  0.6916522934106903  0.4327184508133505  1.0000
  H   H2        1.0  0.5473111705958774  0.3083477057244318  0.5672815493079559  1.0000
  H   H3        1.0  0.9410589876280019  0.801428467502045  0.2674086187604816  1.0000
  H   H4        1.0  0.058941012064021046  0.19857153258782775  0.7325913813582309  1.0000
  H   H5        1.0  0.08621137913657374  0.5898123766220544  0.3525456004818441  1.0000
  H   H6        1.0  0.9137886205554492  0.4101876234678183  0.6474543996368683  1.0000
  H   H7        1.0  0.08187159496817724  0.8261576246238781  0.10681483895039827  1.0000
  H   H8        1.0  0.9181284047238458  0.17384237546599468  0.8931851611683141  1.0000
  H   H9        1.0  0.2961063360153789  0.5134870548506895  0.2325721998522376  1.0000
  H   H10       1.0  0.7038936648198989  0.48651294523230637  0.7674278002655441  1.0000
  H   H11       1.0  0.5385051313083377  0.9733230155768816  0.4005988719297308  1.0000
  H   H12       1.0  0.4614948683836852  0.026676984512991078  0.5994011281889816  1.0000
  H   H13       1.0  0.5847016798516762  0.7361069790246416  0.2676112327115984  1.0000
  H   H14       1.0  0.4152983198403467  0.263893021065231  0.7323887674071141  1.0000
  H   H15       1.0  0.4383604062888463  0.9455330548392138  0.18229143187854874  1.0000
  H   H16       1.0  0.5616395934031766  0.05446694525065894  0.8177085682401636  1.0000
  H   H17       1.0  0.23017227565759657  0.882298119648295  0.4530703169418679  1.0000
  H   H18       1.0  0.7698277240344262  0.11770188044157766  0.5469296831768444  1.0000
  H   H19       1.0  0.2179481298438701  0.03563227866825987  0.2939886706100091  1.0000
  H   H20       1.0  0.7820518698481528  0.9643677214216128  0.7060113295087033  1.0000
  H   H21       1.0  0.9702705336098413  0.4753023505310531  0.14716906630305285  1.0000
  H   H22       1.0  0.029729466082181546  0.5246976495588195  0.8528309338156596  1.0000
  H   H23       1.0  0.8945269027421927  0.5964541368052243  0.09842678878101913  1.0000
  H   H24       1.0  0.10547309809308507  0.40354586327777153  0.9015732113367626  1.0000
  H   H25       1.0  0.22929589860895397  0.6837372430705855  0.032689620358426326  1.0000
  H   H26       1.0  0.7707041022263238  0.3162627570124104  0.9673103797593553  1.0000
  H   H27       1.0  0.30721240276915746  0.5659113985298468  0.07885177402996475  1.0000
  H   H28       1.0  0.6927875977055302  0.43408860134457494  0.9211482253846237  1.0000
  H   H29       1.0  0.6058839082240605  0.4986838696353637  0.12174006502343945  1.0000
  H   H30       1.0  0.39411609261121733  0.5013161304476321  0.8782599350943422  1.0000
  H   H31       1.0  0.7872871062658251  0.5525075402825803  0.2856610879536407  1.0000
  H   H32       1.0  0.21271289342619776  0.44749245980729224  0.7143389121650717  1.0000
  H   H33       1.0  0.5130383647318899  0.21318579327206247  0.3446191077057565  1.0000
  H   H34       1.0  0.486961634960133  0.7868142068178101  0.6553808924129559  1.0000
  H   H35       1.0  0.3313784736598264  0.15864702890098242  0.1811546522322157  1.0000
  H   H36       1.0  0.6686215256716065  0.8413529709803161  0.8188453471833035  1.0000
  H   H37       1.0  0.8870562096618289  0.4892508526046533  0.43249401798212894  1.0000
  H   H38       1.0  0.11294379003019404  0.5107491474852193  0.5675059821365834  1.0000
  H   H39       1.0  0.8060441384196755  0.33028235561625147  0.44718824692575515  1.0000
  H   H40       1.0  0.19395586127234746  0.6697176444736213  0.5528117531929573  1.0000
  H   H41       1.0  0.715690773926382  0.46086244356653455  0.4754433788415429  1.0000
  H   H42       1.0  0.2843092254050508  0.539137556314764  0.5245566205739762  1.0000
  H   H43       1.0  0.5074126811360421  0.2607597089855627  0.9384657360748394  1.0000
  H   H44       1.0  0.4925873196992357  0.7392402910974332  0.061534264042942384  1.0000
  H   H45       1.0  0.4313631347883486  0.11788023408849249  0.9693878825666576  1.0000
  H   H46       1.0  0.5686368660469292  0.8821197659945033  0.030612117551124  1.0000
  H   H47       1.0  0.11464021183433735  0.32763037141476886  0.23858965687778527  1.0000
  H   H48       1.0  0.8853597890009404  0.672369628668227  0.7614103432399965  1.0000
  H   H49       1.0  0.2573551695188667  0.3423579391421487  0.4060319800895925  1.0000
  H   H50       1.0  0.742644831316411  0.6576420609408472  0.5939680200281892  1.0000
  H   H51       1.0  0.8629969315122443  0.04983354726611274  0.4230117303533344  1.0000
  H   H52       1.0  0.13700306781918858  0.950166452615186  0.5769882690621848  1.0000
  H   H53       1.0  0.7199300962199909  0.032836270105718775  0.2543745675395009  1.0000
  H   H54       1.0  0.28006990347203187  0.9671637299841538  0.7456254325792114  1.0000
  H   H55       1.0  0.2364457409727127  0.3001112667973016  0.5612844425387677  1.0000
  H   H56       1.0  0.7635542587193102  0.6998887332925711  0.43871555757994474  1.0000
  H   H57       1.0  0.23977573751149198  0.13386259541389936  0.531836799722869  1.0000
  H   H58       1.0  0.760224262180531  0.8661374046759733  0.4681632003958433  1.0000
  H   H59       1.0  0.07379859946846395  0.17677187958274687  0.5671262319207553  1.0000
  H   H60       1.0  0.9262014002235589  0.8232281205071258  0.4328737681979571  1.0000
  H   H61       1.0  0.014362365719554498  0.12120038413620099  0.058138005169640954  1.0000
  H   H62       1.0  0.9856376339724683  0.8787996159536716  0.9418619949490714  1.0000
  H   H63       1.0  0.8776194408747395  0.9779207989318097  0.055157459466475996  1.0000
  H   H64       1.0  0.12238055881728328  0.022079201158062917  0.9448425406522364  1.0000
  B   B1        1.0  0.37657839221702144  0.7286052381665172  0.36786704338683734  1.0000
  B   B2        1.0  0.6234216074750014  0.2713947619233554  0.6321329567318751  1.0000
  B   B3        1.0  0.07866482140909806  0.7946867364178382  0.2761039388528031  1.0000
  B   B4        1.0  0.9213351782829249  0.2053132636720345  0.7238960612659093  1.0000
  B   B5        1.0  0.16281156238223815  0.6714316264406915  0.32521834114844356  1.0000
  B   B6        1.0  0.8371884373097848  0.3285683736491813  0.6747816589702688  1.0000
  B   B7        1.0  0.15987257891087236  0.8117144687581029  0.180033426098477  1.0000
  B   B8        1.0  0.8401274205703537  0.18828553037701912  0.8199665740228295  1.0000
  B   B9        1.0  0.2892463487000317  0.624004905384254  0.25551719858214406  1.0000
  B   B10       1.0  0.7107536509919912  0.3759950947056185  0.7444828015365684  1.0000
  B   B11       1.0  0.42615208013105343  0.8911606335534377  0.34899665787904005  1.0000
  B   B12       1.0  0.5738479195609695  0.10883936653643482  0.6510033422396723  1.0000
  B   B13       1.0  0.45925128223768535  0.7580108240072034  0.2753130462395385  1.0000
  B   B14       1.0  0.5407487174543375  0.24198917608266915  0.7246869538791739  1.0000
  B   B15       1.0  0.37440014005314853  0.8798937655346221  0.22559802941395501  1.0000
  B   B16       1.0  0.6255998607821291  0.12010623454837367  0.7744019707038267  1.0000
  B   B17       1.0  0.24692630709822322  0.8388527423357437  0.37928970724644173  1.0000
  B   B18       1.0  0.7530736925937996  0.16114725775412905  0.6207102928722706  1.0000
  B   B19       1.0  0.24013584845775685  0.9276835100897066  0.2877143135455688  1.0000
  B   B20       1.0  0.7598641510234695  0.07231648904541566  0.7122856865757377  1.0000
  C   C1        1.0  0.3036937837465071  0.721577123596952  0.17689808207041363  1.0000
  C   C2        1.0  0.6963062170887707  0.2784228764860439  0.8231019180473681  1.0000
  C   C3        1.0  0.1053288501172295  0.6636075576241285  0.20910484523747164  1.0000
  C   C4        1.0  0.8946711507180483  0.33639244245886735  0.79089515488031  1.0000
  C   C5        1.0  0.45845321992145777  0.3255296420649531  0.14208478548561218  1.0000
  C   C6        1.0  0.5415467809138199  0.6744703580180427  0.8579152146321695  1.0000
  C   C7        1.0  0.5858397675442818  0.43669534379208425  0.1707922774300647  1.0000
  C   C8        1.0  0.4141602332909959  0.5633046562909114  0.829207722687717  1.0000
  C   C9        1.0  0.686934934392656  0.4664119936111588  0.26299236273348753  1.0000
  C   C10       1.0  0.313065065299367  0.5335880064787138  0.7370076373852248  1.0000
  C   C11       1.0  0.6633335302696278  0.38690717908367983  0.3266894082897306  1.0000
  C   C12       1.0  0.336666469422395  0.6130928210061928  0.6733105918289818  1.0000
  C   C13       1.0  0.5331608553116871  0.2765336870040168  0.2961539373965322  1.0000
  C   C14       1.0  0.4668391443803358  0.7234663130858558  0.7038460627221803  1.0000
  C   C15       1.0  0.43079472735876306  0.2450759096967331  0.2043117409930704  1.0000
  C   C16       1.0  0.5692052723332598  0.7549240903931395  0.795688259125642  1.0000
  C   C17       1.0  0.7745768813467168  0.4186717460020088  0.4254643617624628  1.0000
  C   C18       1.0  0.22542311834530612  0.5813282540878638  0.5745356383562495  1.0000
  C   C19       1.0  0.909262967993198  0.17860464665528397  0.23695724694305897  1.0000
  C   C20       1.0  0.09073703169882485  0.8213953534345886  0.7630427531756534  1.0000
  C   C21       1.0  0.059670215670665175  0.2666402936057427  0.2790279512713716  1.0000
  C   C22       1.0  0.9403297840213577  0.73335970648413  0.7209720488473408  1.0000
  C   C23       1.0  0.13931407060018938  0.2746010345160106  0.3732163933281494  1.0000
  C   C24       1.0  0.8606859290918335  0.725398965573862  0.626783606790563  1.0000
  C   C25       1.0  0.07087652076235805  0.1962002825717473  0.4263847237102866  1.0000
  C   C26       1.0  0.9291234789296648  0.8037997175181254  0.5736152764084258  1.0000
  C   C27       1.0  0.9192484156255073  0.10970310686321266  0.38238452498067604  1.0000
  C   C28       1.0  0.08075158406651563  0.8902968932266601  0.6176154751380363  1.0000
  C   C29       1.0  0.837967733946898  0.09963587242014392  0.2879903778619879  1.0000
  C   C30       1.0  0.16203226517373812  0.9003641265064042  0.7120096215561253  1.0000
  C   C31       1.0  0.15901450336700607  0.20279343973767217  0.5272511769736231  1.0000
  C   C32       1.0  0.8409854959644267  0.7972065601436263  0.47274882244189603  1.0000
  N   N1        1.0  0.3091715733923985  0.663484071129881  0.08882155655622756  1.0000
  N   N2        1.0  0.6908284274428793  0.33651592895311494  0.9111784435615542  1.0000
  N   N3        1.0  0.9891640004784266  0.570369843612418  0.14133975981784652  1.0000
  N   N4        1.0  0.010835999213596365  0.42963015647745456  0.8586602403008659  1.0000
  N   N5        1.0  0.40999058224690016  0.20517569343130912  0.9540456169993682  1.0000
  N   N6        1.0  0.5900094185883776  0.7948243066516868  0.045954383118413517  1.0000
  N   N7        1.0  0.899042032291783  0.07606960568772068  0.055915438912878396  1.0000
  N   N8        1.0  0.1009579685434947  0.9239303943952752  0.9440845612049032  1.0000
  O   O1        1.0  0.31842391025534694  0.40611723382197223  0.9931289665231742  1.0000
  O   O2        1.0  0.681576090369134  0.5938827653062734  0.006871033597201666  1.0000
  O   O3        1.0  0.18398492506029734  0.19683769583325636  0.023635150900273908  1.0000
  O   O4        1.0  0.8160150746317256  0.8031623042566163  0.9763648492184386  1.0000
  O   O5        1.0  0.8476204450048714  0.29267495973649443  0.09556444458092576  1.0000
  O   O6        1.0  0.15237955432656164  0.7073250401448041  0.9044355548345935  1.0000
  O   O7        1.0  0.645364172704859  0.09207646996351365  0.0946736820096316  1.0000
  O   O8        1.0  0.35463582698716395  0.907923530126359  0.9053263181090808  1.0000
  S   S1        1.0  0.3326166151930247  0.28456815770960636  0.024599072100407394  1.0000
  S   S2        1.0  0.6673833841384081  0.7154318421716921  0.9754009273151116  1.0000
  S   S3        1.0  0.8124715414620272  0.16309013866443486  0.11626271633417523  1.0000
  S   S4        1.0  0.1875284582299956  0.8369098614254377  0.8837372837845371  1.0000
