data_image0
_chemical_formula_structural       H82C96O8P2
_chemical_formula_sum              "H82 C96 O8 P2"
_cell_length_a       9.260634325529308
_cell_length_b       9.60681421022052
_cell_length_c       21.936527814031137
_cell_angle_alpha    77.47383131574368
_cell_angle_beta     76.4860147919207
_cell_angle_gamma    76.34786698207218

_space_group_name_H-M_alt    "P 1"
_space_group_IT_number       1

loop_
  _space_group_symop_operation_xyz
  'x, y, z'

loop_
  _atom_site_type_symbol
  _atom_site_label
  _atom_site_symmetry_multiplicity
  _atom_site_fract_x
  _atom_site_fract_y
  _atom_site_fract_z
  _atom_site_occupancy
  H   H1        1.0  0.04062054884670223  0.4603859152361858  0.4556175869548162  1.0000
  H   H2        1.0  0.9593794512037891  0.539614084719734  0.5443824132534242  1.0000
  H   H3        1.0  0.9683799175880582  0.24232076887812254  0.5468347174525116  1.0000
  H   H4        1.0  0.03162008266394089  0.7576792312716788  0.45316528227991915  1.0000
  H   H5        1.0  0.038974383532063166  0.344251687475558  0.20461977148549276  1.0000
  H   H6        1.0  0.9610256165184281  0.6557483124803618  0.7953802287227476  1.0000
  H   H7        1.0  0.1026397930194559  0.048829095054051086  0.39564331772200106  1.0000
  H   H8        1.0  0.8973602072325433  0.9511709050957504  0.6043566820104296  1.0000
  H   H9        1.0  0.7849921256407516  0.833162133975114  0.4089719322455195  1.0000
  H   H10       1.0  0.2150078746112477  0.16683786617468735  0.5910280674869112  1.0000
  H   H11       1.0  0.7364326609668719  0.19594430188101836  0.25591340855327305  1.0000
  H   H12       1.0  0.26356733799698573  0.8040556980891144  0.7440865916613679  1.0000
  H   H13       1.0  0.8536049401807974  0.9874181382506491  0.4716633127249053  1.0000
  H   H14       1.0  0.14639506007120176  0.012581861899152509  0.5283366870075253  1.0000
  H   H15       1.0  0.371085808390449  0.9957030499207544  0.405017532701756  1.0000
  H   H16       1.0  0.6289141918615501  0.004296950229046922  0.5949824670306747  1.0000
  H   H17       1.0  0.7327053335883301  0.9382626472530109  0.3001715194171881  1.0000
  H   H18       1.0  0.26729466666366897  0.06173735289679058  0.6998284803152426  1.0000
  H   H19       1.0  0.6079477808530002  0.7550761176432127  0.1552603536836283  1.0000
  H   H20       1.0  0.3920522191974909  0.24492388231270698  0.8447396465246122  1.0000
  H   H21       1.0  0.5756658166246889  0.34669353759361976  0.4603764016421366  1.0000
  H   H22       1.0  0.4243341823391688  0.653306462376513  0.5396235985725044  1.0000
  H   H23       1.0  0.9382521374449982  0.7010629313562061  0.0535369114927457  1.0000
  H   H24       1.0  0.06174786280700075  0.2989370687935953  0.9464630882396851  1.0000
  H   H25       1.0  0.47655349397432867  0.1710968295634525  0.44151294932746715  1.0000
  H   H26       1.0  0.5234465062776705  0.8289031705863491  0.5584870504049635  1.0000
  H   H27       1.0  0.7327249388442275  0.47090642790166454  0.015738389549464556  1.0000
  H   H28       1.0  0.2672750612062636  0.5290935720542553  0.9842616106587758  1.0000
  H   H29       1.0  0.4483443088270707  0.9362606213428328  0.08505540913451154  1.0000
  H   H30       1.0  0.5516556912234204  0.06373937861308672  0.9149445910737289  1.0000
  H   H31       1.0  0.5089083344595879  0.46040688709710637  0.3361741172977077  1.0000
  H   H32       1.0  0.4910916657924111  0.5395931130526951  0.663825882434723  1.0000
  H   H33       1.0  0.4481597517602876  0.3137469355308941  0.31869825090155873  1.0000
  H   H34       1.0  0.55184024720357  0.6862530644392387  0.6813017493130822  1.0000
  H   H35       1.0  0.3544198631267132  0.49372609964676184  0.2957798226971331  1.0000
  H   H36       1.0  0.6455801358371445  0.5062739003233709  0.7042201775175078  1.0000
  H   H37       1.0  0.29667192096963546  0.3997174578531992  0.1904293653796871  1.0000
  H   H38       1.0  0.7033280779942223  0.6002825421169337  0.8095706348349538  1.0000
  H   H39       1.0  0.30853601177375556  0.4083045320898903  0.4653306306315433  1.0000
  H   H40       1.0  0.6914639884782435  0.591695468059911  0.5346693691008875  1.0000
  H   H41       1.0  0.19499683743214946  0.7561709239085845  0.040789103558147  1.0000
  H   H42       1.0  0.8050031628198496  0.24382907624121697  0.9592108961742837  1.0000
  H   H43       1.0  0.04369667595934251  0.5662622181642779  0.2890888458587123  1.0000
  H   H44       1.0  0.9563033230045153  0.43373778180585476  0.7109111543559286  1.0000
  H   H45       1.0  0.9581391674633938  0.7529465544049512  0.2942347106630593  1.0000
  H   H46       1.0  0.04186083258709733  0.24705344555096848  0.7057652895451811  1.0000
  H   H47       1.0  0.038186713056159304  0.7000638920030953  0.21884797306214124  1.0000
  H   H48       1.0  0.9618132869943319  0.29993610795282455  0.7811520271460991  1.0000
  H   H49       1.0  0.5222634128640682  0.27752227826707343  0.6641646775416004  1.0000
  H   H50       1.0  0.47773658738793107  0.7224777218827279  0.3358353221908303  1.0000
  H   H51       1.0  0.40978896532397846  0.3377854902910145  0.5670970436833103  1.0000
  H   H52       1.0  0.5902110349280205  0.6622145098587869  0.43290295604912044  1.0000
  H   H53       1.0  0.4348413375514266  0.883887577382699  0.9805601304207434  1.0000
  H   H54       1.0  0.5651586624990647  0.11611242257322105  0.01943986978749694  1.0000
  H   H55       1.0  0.8042495889226257  0.23534053865242496  0.6527921955903367  1.0000
  H   H56       1.0  0.19575041112786548  0.7646594613034947  0.3472078046179038  1.0000
  H   H57       1.0  0.0806392150946106  0.30437435729702744  0.08441117565908329  1.0000
  H   H58       1.0  0.9193607851573886  0.6956256428527741  0.9155888240733473  1.0000
  H   H59       1.0  0.6127338981725897  0.25566150445791064  0.13465784083723542  1.0000
  H   H60       1.0  0.38726610187790156  0.7443384954980091  0.865342159371005  1.0000
  H   H61       1.0  0.37209922943619445  0.6034472269708858  0.110494551791135  1.0000
  H   H62       1.0  0.6279007706142966  0.3965527729850339  0.8895054484171055  1.0000
  H   H63       1.0  0.15533267351627528  0.06673636695743643  0.05163144388856612  1.0000
  H   H64       1.0  0.8446673265342156  0.9332636329984835  0.9483685563196744  1.0000
  H   H65       1.0  0.5781533043640988  0.6531717568494377  0.9455088618666754  1.0000
  H   H66       1.0  0.4218466956863924  0.34682824310648197  0.05449113834156511  1.0000
  H   H67       1.0  0.9616661874719743  0.9155921063368432  0.0631559403406082  1.0000
  H   H68       1.0  0.038333812780024755  0.08440789381295806  0.9368440593918225  1.0000
  H   H69       1.0  0.6906682191958523  0.011970842487626433  0.10465887036333764  1.0000
  H   H70       1.0  0.3093317810561468  0.988029157662175  0.895341129369093  1.0000
  H   H71       1.0  0.35537868620258356  0.04423359893654428  0.2945673282027529  1.0000
  H   H72       1.0  0.6446213140494156  0.9557664012132571  0.7054326715296778  1.0000
  H   H73       1.0  0.48511690152827924  0.13441487634866042  0.23296842651482982  1.0000
  H   H74       1.0  0.5148830987237197  0.8655851238011409  0.7670315732176008  1.0000
  H   H75       1.0  0.507688809075923  0.9414495838249993  0.2476026351370953  1.0000
  H   H76       1.0  0.4923111911760761  0.058550416324802124  0.7523973645953353  1.0000
  H   H77       1.0  0.1255956174131605  0.9999105951035191  0.2618277769558121  1.0000
  H   H78       1.0  0.8744043826373307  8.940485240061507e-05  0.7381722232524284  1.0000
  H   H79       1.0  0.24636225408177428  0.8535439154566838  0.22744183906306642  1.0000
  H   H80       1.0  0.7536377461702247  0.14645608469311766  0.7725581606693642  1.0000
  H   H81       1.0  0.13545979972373692  0.9936105645675802  0.1796807956234941  1.0000
  H   H82       1.0  0.864540200326754  0.006389435388339455  0.8203192045847465  1.0000
  C   C1        1.0  0.8075750862983351  0.3945960197848896  0.3243755030025619  1.0000
  C   C2        1.0  0.19242491375215606  0.6054039801710301  0.6756244972056785  1.0000
  C   C3        1.0  0.05069935820995678  0.25662083894622756  0.42697603689098473  1.0000
  C   C4        1.0  0.9493006418405345  0.7433791610096923  0.5730239633172557  1.0000
  C   C5        1.0  0.7983048938512765  0.24025999436876158  0.3384503944644642  1.0000
  C   C6        1.0  0.2016951061992146  0.7597400055871582  0.6615496057437762  1.0000
  C   C7        1.0  0.8796410190923485  0.2853139750488506  0.42885650704686684  1.0000
  C   C8        1.0  0.12035898095814263  0.7146860249070691  0.5711434931613736  1.0000
  C   C9        1.0  0.5679595565535549  0.43148908209878245  0.23677286097997888  1.0000
  C   C10       1.0  0.43204044261181085  0.5685109180652321  0.7632271387588523  1.0000
  C   C11       1.0  0.7140129640204625  0.4660007437387305  0.2237570909190419  1.0000
  C   C12       1.0  0.28598703603002856  0.5339992562171894  0.7762429092891987  1.0000
  C   C13       1.0  0.8349428650167284  0.17747542347678247  0.398814546713329  1.0000
  C   C14       1.0  0.16505713503376268  0.8225245764791375  0.6011854534949114  1.0000
  C   C15       1.0  0.6802572866717451  0.6028902540425429  0.08942966021271834  1.0000
  C   C16       1.0  0.319742713580254  0.39710974610725847  0.9105703395197123  1.0000
  C   C17       1.0  0.8390456506661761  0.42983905537351297  0.38177782850289516  1.0000
  C   C18       1.0  0.160954349585823  0.5701609447762885  0.6182221712295355  1.0000
  C   C19       1.0  0.8404527313516064  0.29711257113933026  0.11354631246131386  1.0000
  C   C20       1.0  0.1595472689003926  0.7028874290104713  0.8864536872711167  1.0000
  C   C21       1.0  0.11293796279048116  0.3579252454273291  0.4450324020576286  1.0000
  C   C22       1.0  0.8870620374615179  0.6420747547224724  0.5549675976748021  1.0000
  C   C23       1.0  0.7844042657598314  0.2921778518572236  0.4957668294110186  1.0000
  C   C24       1.0  0.2155957334055344  0.7078221483067908  0.5042331703278126  1.0000
  C   C25       1.0  0.7882089089872099  0.4949789352463899  0.2696981688718142  1.0000
  C   C26       1.0  0.21179109106328137  0.50502106470953  0.7303018313364261  1.0000
  C   C27       1.0  0.8463071684436407  0.2629506168171731  0.5506318882592954  1.0000
  C   C28       1.0  0.15369283160685054  0.7370493831387466  0.449368111948945  1.0000
  C   C29       1.0  0.0726032091165643  0.435713376962661  0.16930047491141534  1.0000
  C   C30       1.0  0.9273967911354349  0.5642866231871405  0.8306995248210153  1.0000
  C   C31       1.0  0.14704044112281053  0.1285146639233215  0.4106755674267309  1.0000
  C   C32       1.0  0.8529595591291885  0.8714853362264801  0.5893244323056998  1.0000
  C   C33       1.0  0.9715111854536009  0.5221730874135143  0.13086299220487624  1.0000
  C   C34       1.0  0.028488814596890396  0.47782691254240556  0.8691370080033641  1.0000
  C   C35       1.0  0.7911429427422786  0.9464540769531515  0.3890611314549204  1.0000
  C   C36       1.0  0.2088570562215791  0.0535459230169812  0.6109388687597206  1.0000
  C   C37       1.0  0.7630666244262656  0.15172415080185536  0.3028312020265089  1.0000
  C   C38       1.0  0.23693337582573334  0.8482758493479462  0.6971687977059217  1.0000
  C   C39       1.0  0.8291659730627804  0.0326977087392914  0.42438587659604426  1.0000
  C   C40       1.0  0.17083402723453833  0.9673022901469105  0.5756141236088316  1.0000
  C   C41       1.0  0.8249978055607409  0.6445066533543784  0.25969643322339425  1.0000
  C   C42       1.0  0.17500219448975043  0.3554933466015414  0.7403035669848461  1.0000
  C   C43       1.0  0.29946354622666793  0.09843360297515075  0.41579879536246883  1.0000
  C   C44       1.0  0.7005364540253312  0.9015663971746506  0.5842012043699618  1.0000
  C   C45       1.0  0.7606648581048325  0.005843182834523518  0.32810266014727146  1.0000
  C   C46       1.0  0.23933514085902519  0.9941568171356093  0.6718973400673695  1.0000
  C   C47       1.0  0.6010905401894063  0.7343203776363215  0.10906957595695035  1.0000
  C   C48       1.0  0.3989094600625926  0.2656796225134799  0.8909304237754804  1.0000
  C   C49       1.0  0.6260560209015705  0.32113781484282844  0.5027338574445868  1.0000
  C   C50       1.0  0.3739439793504286  0.6788621853069728  0.49726614228784394  1.0000
  C   C51       1.0  0.015670325909135054  0.6370394529388359  0.08438368793297046  1.0000
  C   C52       1.0  0.9843296743881838  0.36296054594736604  0.9156163122719053  1.0000
  C   C53       1.0  0.35829652667349104  0.19678188717496717  0.43658438241984693  1.0000
  C   C54       1.0  0.641703473578508  0.8032181129748341  0.5634156173125837  1.0000
  C   C55       1.0  0.6720205586966141  0.5734397466727533  0.030639511003784144  1.0000
  C   C56       1.0  0.32797944155538505  0.42656025347704823  0.9693604887286464  1.0000
  C   C57       1.0  0.5124757537493909  0.8350306103812227  0.06969093681063043  1.0000
  C   C58       1.0  0.48752424630110014  0.1649693895746971  0.93030906339761  1.0000
  C   C59       1.0  0.4656603074205599  0.42562922213390375  0.3008410182477832  1.0000
  C   C60       1.0  0.5343396915432977  0.574370777836229  0.6991589819668577  1.0000
  C   C61       1.0  0.2158732527258751  0.46553006771267896  0.16164283454246503  1.0000
  C   C62       1.0  0.7841267473246158  0.5344699322432409  0.8383571656657755  1.0000
  C   C63       1.0  0.2648211357446935  0.32802924597695277  0.45021040656185624  1.0000
  C   C64       1.0  0.7351788643057977  0.671970753978967  0.5497895936463842  1.0000
  C   C65       1.0  0.15967438350570598  0.6673141852006576  0.07727585357517605  1.0000
  C   C66       1.0  0.8403256165447853  0.33268581475526227  0.9227241466330643  1.0000
  C   C67       1.0  0.9758419803266695  0.6653367599505634  0.2669537071144227  1.0000
  C   C68       1.0  0.024158019925329635  0.334663240199238  0.733046292618008  1.0000
  C   C69       1.0  0.5957210849162431  0.28319995768135175  0.6172677805238354  1.0000
  C   C70       1.0  0.4042789142491225  0.7168000424826628  0.38273221921499584  1.0000
  C   C71       1.0  0.5324052907898026  0.3160789621597726  0.5626432316813633  1.0000
  C   C72       1.0  0.4675947092606885  0.6839210377961473  0.43735676852687716  1.0000
  C   C73       1.0  0.504252752843194  0.8053154669980114  0.011114352103626532  1.0000
  C   C74       1.0  0.4957472474088051  0.19468453315179005  0.988885647628804  1.0000
  C   C75       1.0  0.7527315766557068  0.25872583140689603  0.6108554698643436  1.0000
  C   C76       1.0  0.24726842359629242  0.7412741687429055  0.38914452986808706  1.0000
  C   C77       1.0  0.993146220303457  0.24274632564116838  0.08884634220898792  1.0000
  C   C78       1.0  0.006853778660400582  0.7572536743289644  0.9111536580056531  1.0000
  C   C79       1.0  0.7313800986737814  0.21378615088431288  0.11725159680303693  1.0000
  C   C80       1.0  0.26861990157821747  0.7862138492654884  0.8827484029293938  1.0000
  C   C81       1.0  0.2591994850902495  0.5818719497212097  0.11593380815173993  1.0000
  C   C82       1.0  0.7408005149602415  0.4181280502347102  0.8840661920565005  1.0000
  C   C83       1.0  0.036070377091764035  0.10669504282319339  0.07021101228355185  1.0000
  C   C84       1.0  0.9639296231602351  0.8933049573266081  0.9297889874488788  1.0000
  C   C85       1.0  0.5841178991972058  0.6751278981053814  0.9914152397039225  1.0000
  C   C86       1.0  0.4158821008532854  0.32487210185053855  0.008584760504317982  1.0000
  C   C87       1.0  0.927840879740922  0.02272527141938477  0.07642011393576342  1.0000
  C   C88       1.0  0.0721591194244437  0.9772747287446296  0.9235798858030677  1.0000
  C   C89       1.0  0.7759371713721502  0.07686136972455267  0.09963730920265887  1.0000
  C   C90       1.0  0.22406282867834096  0.9231386302313671  0.9003626910055815  1.0000
  C   C91       1.0  0.33013350373836203  0.05185362016288674  0.19800013458755858  1.0000
  C   C92       1.0  0.6698664965589565  0.9481463787233154  0.8019998656173172  1.0000
  C   C93       1.0  0.42388328232592754  0.044354236902154884  0.24651347077707708  1.0000
  C   C94       1.0  0.5761167177245635  0.9556457630537649  0.7534865294311633  1.0000
  C   C95       1.0  0.20053873043271478  0.9711457016952424  0.21762041065045445  1.0000
  C   C96       1.0  0.7994612685311427  0.02885429827489043  0.7823795895641865  1.0000
  O   O1        1.0  0.8303446123771814  0.5522550359039249  0.39271372040205066  1.0000
  O   O2        1.0  0.1696553878748178  0.44774496424587656  0.60728627933038  1.0000
  O   O3        1.0  0.5200496187704198  0.41008420378360366  0.19056088077090594  1.0000
  O   O4        1.0  0.4799503814815794  0.5899157963661978  0.8094391189615248  1.0000
  O   O5        1.0  0.7301644471469546  0.7502884535001025  0.24137749651485377  1.0000
  O   O6        1.0  0.2698355529035365  0.24971154645581714  0.7586225036933867  1.0000
  O   O7        1.0  0.36104542321061095  0.11774347094844183  0.1432497131430745  1.0000
  O   O8        1.0  0.6389545757532469  0.8822565290216909  0.8567502870715664  1.0000
  P   P1        1.0  0.7907071045199986  0.4718738574219007  0.14150073373693056  1.0000
  P   P2        1.0  0.2092928955304925  0.5281261425340193  0.8584992664713098  1.0000
