data_image0
_chemical_formula_structural       H128C120N16O20F4Cl4
_chemical_formula_sum              "H128 C120 N16 O20 F4 Cl4"
_cell_length_a       9.390373481560141
_cell_length_b       38.18629767996954
_cell_length_c       7.718628588435104
_cell_angle_alpha    90.0
_cell_angle_beta     102.87003866345466
_cell_angle_gamma    90.0

_space_group_name_H-M_alt    "P 1"
_space_group_IT_number       1

loop_
  _space_group_symop_operation_xyz
  'x, y, z'

loop_
  _atom_site_type_symbol
  _atom_site_label
  _atom_site_symmetry_multiplicity
  _atom_site_fract_x
  _atom_site_fract_y
  _atom_site_fract_z
  _atom_site_occupancy
  H   H1        1.0  0.2847134430135895  0.5314712277185649  0.35878909048654384  1.0000
  H   H2        1.0  0.7152865575019499  0.03147122771816612  0.1412109096342583  1.0000
  H   H3        1.0  0.7152865568615079  0.46852877228223266  0.6412109095573753  1.0000
  H   H4        1.0  0.2847134423731472  0.9685287722826315  0.8587890904096608  1.0000
  H   H5        1.0  0.4338471924016675  0.413820595870152  0.1466146482456265  1.0000
  H   H6        1.0  0.5661528081138719  0.9138205958705508  0.3533853518751756  1.0000
  H   H7        1.0  0.5661528074734297  0.5861794041306456  0.8533853517982927  1.0000
  H   H8        1.0  0.433847192828274  0.08617940413024677  0.6466146481805991  1.0000
  H   H9        1.0  0.41181464372012405  0.3593568152378931  0.20418873504396018  1.0000
  H   H10       1.0  0.5881853567954154  0.8593568152382919  0.295811265076842  1.0000
  H   H11       1.0  0.5881853572220218  0.6406431847629045  0.7958112650118145  1.0000
  H   H12       1.0  0.4118146430796818  0.1406431847625057  0.7041887349670771  1.0000
  H   H13       1.0  0.09684951673450883  0.6160004684701018  0.20051482112107455  1.0000
  H   H14       1.0  0.903150482713982  0.11600046846970301  0.2994851789878719  1.0000
  H   H15       1.0  0.9031504831405884  0.38399953153069577  0.7994851789228447  1.0000
  H   H16       1.0  0.09684951716111523  0.8839995315310947  0.7005148210560472  1.0000
  H   H17       1.0  0.1344522652674617  0.7439845658277144  0.29093722621642143  1.0000
  H   H18       1.0  0.8655477341810293  0.24398456582731567  0.20906277389252512  1.0000
  H   H19       1.0  0.8655477346076355  0.25601543417308315  0.7090627738274976  1.0000
  H   H20       1.0  0.1344522656940681  0.7560154341734819  0.7909372261513941  1.0000
  H   H21       1.0  0.32446815186141287  0.2979443973686918  0.20967735756345462  1.0000
  H   H22       1.0  0.675531847587078  0.7979443973690906  0.2903226425454919  1.0000
  H   H23       1.0  0.6755318480136843  0.7020556026321058  0.7903226424804645  1.0000
  H   H24       1.0  0.32446815228801923  0.20205560263170697  0.7096773574984271  1.0000
  H   H25       1.0  0.9039675739488864  0.6540648852455057  0.029348962916393526  1.0000
  H   H26       1.0  0.09603242656665284  0.15406488524510692  0.47065103720440865  1.0000
  H   H27       1.0  0.09603242592621063  0.3459351147552919  0.9706510371275257  1.0000
  H   H28       1.0  0.903967574375493  0.8459351147556906  0.5293489628513661  1.0000
  H   H29       1.0  0.5500821314648301  0.505790224594913  0.342399956679308  1.0000
  H   H30       1.0  0.4499178690507094  0.005790224594514196  0.15760004344149414  1.0000
  H   H31       1.0  0.4499178684102672  0.49420977540588457  0.6576000433646112  1.0000
  H   H32       1.0  0.5500821318914364  0.9942097754062834  0.8423999566142806  1.0000
  H   H33       1.0  0.545246707638966  0.4846989775002131  0.13523328374812402  1.0000
  H   H34       1.0  0.45475329287657346  0.984698977500612  0.36476671637267816  1.0000
  H   H35       1.0  0.45475329223613137  0.5153010225005844  0.8647667162957952  1.0000
  H   H36       1.0  0.5452467069985237  0.015301022500185621  0.635233283671241  1.0000
  H   H37       1.0  0.37692449124341104  0.5664148991680215  0.014844102106144745  1.0000
  H   H38       1.0  0.62307550820508  0.06641489916762265  0.48515589800280184  1.0000
  H   H39       1.0  0.6230755086316861  0.4335851008327762  0.9851558979377745  1.0000
  H   H40       1.0  0.3769244916700174  0.933585100833175  0.5148441020411173  1.0000
  H   H41       1.0  0.5459820598856  0.5545932760354706  0.15564288143239272  1.0000
  H   H42       1.0  0.45401794062993944  0.054593276035071824  0.3443571186884094  1.0000
  H   H43       1.0  0.45401793998949724  0.44540672396532693  0.8443571186115265  1.0000
  H   H44       1.0  0.5459820592451577  0.9454067239657258  0.6556428813555097  1.0000
  H   H45       1.0  0.18558407752654088  0.5197975217799599  0.5751379285742586  1.0000
  H   H46       1.0  0.8144159217081142  0.019797521779561088  0.9248620713927774  1.0000
  H   H47       1.0  0.8144159223485563  0.48020247822083767  0.42486207146966054  1.0000
  H   H48       1.0  0.18558407816698308  0.9802024782212364  0.07513792865114162  1.0000
  H   H49       1.0  0.24858685078112852  0.5443559028479396  0.7739423300184681  1.0000
  H   H50       1.0  0.751413149520575  0.044355902847540755  0.7260576699604235  1.0000
  H   H51       1.0  0.7514131490939687  0.45564409715285803  0.226057670025451  1.0000
  H   H52       1.0  0.2485868503545222  0.9556440971532568  0.27394233008349556  1.0000
  H   H53       1.0  0.07867222845443983  0.5542736805066691  0.6391480451086806  1.0000
  H   H54       1.0  0.9213277718472638  0.05427368050627036  0.860851954870211  1.0000
  H   H55       1.0  0.9213277714206574  0.4457263194941284  0.3608519549352384  1.0000
  H   H56       1.0  0.07867222909488206  0.9457263194945273  0.13914804518556373  1.0000
  H   H57       1.0  0.09058017744714812  0.3925001152406026  0.4932003805647505  1.0000
  H   H58       1.0  0.9094198230683913  0.8925001152410013  0.0067996195560515935  1.0000
  H   H59       1.0  0.9094198234949977  0.607499884760195  0.5067996194910243  1.0000
  H   H60       1.0  0.09058017680670591  0.10749988475979623  0.9932003804878675  1.0000
  H   H61       1.0  0.9233818823913345  0.719301193328515  0.073632124576302  1.0000
  H   H62       1.0  0.0766181170571564  0.21930119332811632  0.4263678755326445  1.0000
  H   H63       1.0  0.07661811748376282  0.2806988066722825  0.9263678754676172  1.0000
  H   H64       1.0  0.9233818828179409  0.7806988066726813  0.5736321245112747  1.0000
  H   H65       1.0  0.006259117348133504  0.3304237864520325  0.5010498489210772  1.0000
  H   H66       1.0  0.9937408829535701  0.8304237864524312  0.9989501510578146  1.0000
  H   H67       1.0  0.9937408835940124  0.6695762135487651  0.4989501511346976  1.0000
  H   H68       1.0  0.006259116921527117  0.1695762135483663  0.0010498489861045573  1.0000
  H   H69       1.0  0.5587404031061112  0.6806606463352938  0.021877589636576517  1.0000
  H   H70       1.0  0.4412595974094284  0.18066064633489504  0.47812241048422566  1.0000
  H   H71       1.0  0.44125959676898613  0.3193393536655038  0.9781224104073425  1.0000
  H   H72       1.0  0.5587404024656689  0.8193393536659025  0.5218775895596935  1.0000
  H   H73       1.0  0.7189147064952949  0.6699251722279144  0.18367251757064346  1.0000
  H   H74       1.0  0.28108529295319595  0.1699251722275155  0.3163274825383031  1.0000
  H   H75       1.0  0.2810852933798023  0.3300748277728833  0.8163274824732756  1.0000
  H   H76       1.0  0.7189147069219013  0.8300748277732821  0.6836725175056161  1.0000
  H   H77       1.0  0.6852269496011629  0.7351763639219185  0.15129688291286938  1.0000
  H   H78       1.0  0.31477304984732796  0.23517636392151972  0.34870311719607716  1.0000
  H   H79       1.0  0.3147730502739343  0.2648236360788791  0.8487031171310497  1.0000
  H   H80       1.0  0.6852269500277692  0.764823636079278  0.6512968828478419  1.0000
  H   H81       1.0  0.5124810042820899  0.7315751166590257  0.21034556740225951  1.0000
  H   H82       1.0  0.4875189951664009  0.23157511665862687  0.289654432706687  1.0000
  H   H83       1.0  0.4875189955930073  0.26842488334177195  0.7896544326416596  1.0000
  H   H84       1.0  0.5124810047086963  0.7684248833421707  0.7103455673372321  1.0000
  H   H85       1.0  0.6764723696803565  0.7216554100361263  0.36870782294785326  1.0000
  H   H86       1.0  0.3235276297681343  0.22165541003572756  0.13129217716109323  1.0000
  H   H87       1.0  0.3235276301947407  0.27834458996467126  0.6312921770960659  1.0000
  H   H88       1.0  0.676472370106963  0.77834458996507  0.868707822882826  1.0000
  H   H89       1.0  0.2916410660273194  0.7032490967063927  0.8655213026154921  1.0000
  H   H90       1.0  0.7083589342743843  0.2032490967059939  0.6344786973633996  1.0000
  H   H91       1.0  0.7083589338477779  0.2967509032944049  0.13447869742842702  1.0000
  H   H92       1.0  0.2916410656007129  0.7967509032948037  0.3655213026805196  1.0000
  H   H93       1.0  0.1255995611735134  0.6791418452594195  0.8558643460688516  1.0000
  H   H94       1.0  0.8744004391281902  0.17914184525902058  0.6441356539100401  1.0000
  H   H95       1.0  0.8744004387015839  0.3208581547413782  0.14413565397506753  1.0000
  H   H96       1.0  0.125599560746907  0.820858154741777  0.3558643461338791  1.0000
  H   H97       1.0  0.2893397098430278  0.6654539458882746  0.0043000606598494985  1.0000
  H   H98       1.0  0.7106602893716596  0.16545394588787585  0.49569993812019675  1.0000
  H   H99       1.0  0.7106602900320695  0.334546054112523  0.9956999393840696  1.0000
  H   H100      1.0  0.2893397102696342  0.8345460541129217  0.5043000605948221  1.0000
  H   H101      1.0  0.1380092331492244  0.5014496705200165  0.9258366302060825  1.0000
  H   H102      1.0  0.8619907671524792  0.0014496705196177624  0.5741633697728091  1.0000
  H   H103      1.0  0.8619907667258728  0.4985503294807811  0.0741633698378365  1.0000
  H   H104      1.0  0.13800923272261806  0.9985503294811798  0.4258366302711101  1.0000
  H   H105      1.0  0.9585348675508891  0.4968057725572921  0.7967636200162066  1.0000
  H   H106      1.0  0.041465132750814454  0.996805772557691  0.7032363799626851  1.0000
  H   H107      1.0  0.041465132324208065  0.5031942274435055  0.20323638002771244  1.0000
  H   H108      1.0  0.9585348671242828  0.003194227443106689  0.29676362008123414  1.0000
  H   H109      1.0  0.9351603773757814  0.43918338982616384  0.9442940725684833  1.0000
  H   H110      1.0  0.06483962185887356  0.9391833898265627  0.5557059273985527  1.0000
  H   H111      1.0  0.06483962249931575  0.5608166101746337  0.05570592747543577  1.0000
  H   H112      1.0  0.9351603780162236  0.060816610174234946  0.44429407264536636  1.0000
  H   H113      1.0  0.10518615604203242  0.4456448214126416  0.08872871518013122  1.0000
  H   H114      1.0  0.894813844473507  0.9456448214130405  0.41127128494067094  1.0000
  H   H115      1.0  0.8948138438330647  0.554355178588156  0.911271284863788  1.0000
  H   H116      1.0  0.10518615646863881  0.054355178587757125  0.5887287151151038  1.0000
  H   H117      1.0  0.05617879803261081  0.4371956590271182  0.6824723213916506  1.0000
  H   H118      1.0  0.9438212022690927  0.937195659027517  0.8175276785872412  1.0000
  H   H119      1.0  0.9438212018424865  0.5628043409736794  0.31752767865226844  1.0000
  H   H120      1.0  0.05617879760600444  0.06280434097328057  0.18247232145667802  1.0000
  H   H121      1.0  0.14337954896470775  0.4064871030464449  0.8455516062311684  1.0000
  H   H122      1.0  0.8566204502699473  0.9064871030468438  0.6544483937358676  1.0000
  H   H123      1.0  0.8566204509103895  0.5935128969543526  0.15444839381275077  1.0000
  H   H124      1.0  0.14337954960514993  0.09351289695395389  0.3455516063080514  1.0000
  H   H125      1.0  0.22529393694902414  0.4474350043880354  0.823333752964622  1.0000
  H   H126      1.0  0.7747060633526794  0.9474350043884343  0.6766662470142699  1.0000
  H   H127      1.0  0.7747060629260731  0.5525649956127622  0.1766662470792973  1.0000
  H   H128      1.0  0.2252939365224177  0.05256499561236336  0.32333375302964923  1.0000
  C   C1        1.0  0.22571294452377466  0.6573227017283342  0.3459926589709549  1.0000
  C   C2        1.0  0.7742870549247163  0.1573227017279354  0.15400734113799167  1.0000
  C   C3        1.0  0.7742870553513226  0.3426772982724634  0.6540073410729642  1.0000
  C   C4        1.0  0.22571294495038105  0.8426772982728621  0.8459926589059275  1.0000
  C   C5        1.0  0.39622115649150175  0.4641951515843873  0.2837416171024349  1.0000
  C   C6        1.0  0.6037788429569891  0.9641951515847861  0.21625838300651165  1.0000
  C   C7        1.0  0.6037788433835954  0.5358048484164103  0.7162583829414843  1.0000
  C   C8        1.0  0.39622115691810816  0.035804848416011475  0.7837416170374074  1.0000
  C   C9        1.0  0.4040508806621292  0.6108520130831024  0.3130836500505363  1.0000
  C   C10       1.0  0.5959491187863616  0.11085201308270366  0.18691635005841029  1.0000
  C   C11       1.0  0.5959491192129681  0.38914798691769514  0.6869163499933829  1.0000
  C   C12       1.0  0.4040508810887356  0.8891479869180939  0.8130836499855089  1.0000
  C   C13       1.0  0.2332582841511418  0.6938645977690167  0.36734972003930644  1.0000
  C   C14       1.0  0.7667417163643977  0.19386459776861784  0.13265028008149565  1.0000
  C   C15       1.0  0.766741716791004  0.306135402231781  0.6326502800164683  1.0000
  C   C16       1.0  0.23325828351069955  0.8061354022321797  0.8673497199624234  1.0000
  C   C17       1.0  0.2541827510114832  0.3796741740062705  0.3465103101796034  1.0000
  C   C18       1.0  0.7458172495040563  0.8796741740066693  0.15348968994119874  1.0000
  C   C19       1.0  0.7458172488636141  0.6203258259945271  0.6534896898643158  1.0000
  C   C20       1.0  0.254182750371041  0.12032582599412829  0.8465103101027205  1.0000
  C   C21       1.0  0.3888768351726133  0.4290765558713643  0.24018964652352714  1.0000
  C   C22       1.0  0.611123164042074  0.929076555871763  0.25981035225651905  1.0000
  C   C23       1.0  0.6111231647024838  0.5709234441294333  0.759810353520392  1.0000
  C   C24       1.0  0.38887683559921976  0.07092344412903451  0.7401896464584997  1.0000
  C   C25       1.0  0.3825316987404176  0.5752516456059199  0.2868603685834791  1.0000
  C   C26       1.0  0.6174683007080732  0.07525164560552108  0.2131396315254674  1.0000
  C   C27       1.0  0.6174683011346797  0.4247483543948777  0.7131396314604399  1.0000
  C   C28       1.0  0.38253169916702395  0.9247483543952765  0.7868603685184516  1.0000
  C   C29       1.0  0.4941940243140787  0.6293023749355312  0.20875753868383262  1.0000
  C   C30       1.0  0.5058059751344121  0.12930237493513244  0.2912424614251139  1.0000
  C   C31       1.0  0.5058059755610185  0.3706976250652664  0.7912424613600865  1.0000
  C   C32       1.0  0.49419402474068513  0.8706976250656651  0.7087575386188052  1.0000
  C   C33       1.0  0.32245067056659  0.35340628471240587  0.26816462843262007  1.0000
  C   C34       1.0  0.6775493288819008  0.8534062847128047  0.23183537167632648  1.0000
  C   C35       1.0  0.6775493293085072  0.6465937152883917  0.7318353716112991  1.0000
  C   C36       1.0  0.3224506709931964  0.14659371528799292  0.7681646283675926  1.0000
  C   C37       1.0  0.3279463201222044  0.6289579076580214  0.4315932564617332  1.0000
  C   C38       1.0  0.6720536803933349  0.12895790765762258  0.06840674365906897  1.0000
  C   C39       1.0  0.6720536797528929  0.3710420923427762  0.568406743582186  1.0000
  C   C40       1.0  0.3279463194817622  0.871042092343175  0.9315932563848502  1.0000
  C   C41       1.0  0.24076149198796334  0.6229921753445823  0.7206114620180413  1.0000
  C   C42       1.0  0.7592385083137403  0.12299217534418345  0.7793885379608505  1.0000
  C   C43       1.0  0.759238507887134  0.37700782465621535  0.2793885380258779  1.0000
  C   C44       1.0  0.24076149156135696  0.8770078246566141  0.22061146208306864  1.0000
  C   C45       1.0  0.2774388830944816  0.6071741035047232  0.5606304909527708  1.0000
  C   C46       1.0  0.722561117207222  0.10717410350432444  0.9393695090261209  1.0000
  C   C47       1.0  0.7225611167806157  0.39282589649607436  0.43936950909114836  1.0000
  C   C48       1.0  0.2774388826678752  0.8928258964964731  0.060630491017798216  1.0000
  C   C49       1.0  0.10345932479210168  0.6441854155686669  0.2221268610602477  1.0000
  C   C50       1.0  0.8965406746563892  0.14418541556826808  0.2778731390486988  1.0000
  C   C51       1.0  0.8965406750829955  0.3558145844321307  0.7778731389836714  1.0000
  C   C52       1.0  0.10345932521870806  0.8558145844325296  0.7221268609952203  1.0000
  C   C53       1.0  0.1602919190097181  0.3118087681552242  0.35279734951612934  1.0000
  C   C54       1.0  0.8397080804387729  0.8118087681556231  0.14720265059281717  1.0000
  C   C55       1.0  0.8397080808653791  0.6881912318455734  0.6472026505277898  1.0000
  C   C56       1.0  0.16029191943632448  0.18819123184517456  0.852797349451102  1.0000
  C   C57       1.0  0.2590391019342128  0.5715065645509682  0.5315200527316291  1.0000
  C   C58       1.0  0.7409608973004422  0.07150656455056939  0.968479947235407  1.0000
  C   C59       1.0  0.7409608979408844  0.42849343544982943  0.46847994731229  1.0000
  C   C60       1.0  0.25903910257465507  0.9284934354502282  0.0315200528085121  1.0000
  C   C61       1.0  0.12454003397756842  0.7158236524809336  0.27063621916275593  1.0000
  C   C62       1.0  0.8754599654709224  0.2158236524805348  0.22936378094619056  1.0000
  C   C63       1.0  0.8754599658975287  0.284176347519864  0.7293637808811632  1.0000
  C   C64       1.0  0.1245400344041748  0.7841763475202628  0.7706362190977286  1.0000
  C   C65       1.0  0.27407743837854576  0.31895716971768273  0.2703114468940459  1.0000
  C   C66       1.0  0.725922561069945  0.8189571697180815  0.22968855321490064  1.0000
  C   C67       1.0  0.7259225614965514  0.6810428302831149  0.7296885531498732  1.0000
  C   C68       1.0  0.27407743880515223  0.18104283028271606  0.7703114468290185  1.0000
  C   C69       1.0  0.9947126701272198  0.6656121230451864  0.12528566535117167  1.0000
  C   C70       1.0  0.005287329321271059  0.1656121230447875  0.3747143347577748  1.0000
  C   C71       1.0  0.005287329747877457  0.3343878769556113  0.8747143346927474  1.0000
  C   C72       1.0  0.9947126705538262  0.8343878769560101  0.6252856652861443  1.0000
  C   C73       1.0  0.4774267354672046  0.49365925725468335  0.22570402424442754  1.0000
  C   C74       1.0  0.5225732650483349  0.9936592572550821  0.2742959758763746  1.0000
  C   C75       1.0  0.5225732654749413  0.5063407427461143  0.7742959758113472  1.0000
  C   C76       1.0  0.4774267348267624  0.006340742745715513  0.7257040241675445  1.0000
  C   C77       1.0  0.42691857746541584  0.5539671456836784  0.14233278758186252  1.0000
  C   C78       1.0  0.5730814230501238  0.05396714568327965  0.3576672125389396  1.0000
  C   C79       1.0  0.5730814224096814  0.4460328543171192  0.8576672124620566  1.0000
  C   C80       1.0  0.42691857682497353  0.946032854317518  0.6423327875049795  1.0000
  C   C81       1.0  0.1897317298154363  0.545992939528581  0.6345612061579669  1.0000
  C   C82       1.0  0.8102682704862673  0.045992939528182106  0.8654387938209249  1.0000
  C   C83       1.0  0.810268270059661  0.4540070604722167  0.36543879388595235  1.0000
  C   C84       1.0  0.18973172938882987  0.9540070604726155  0.13456120622299417  1.0000
  C   C85       1.0  0.14149494427057505  0.37174921431166413  0.43188064199438003  1.0000
  C   C86       1.0  0.8585050562449644  0.8717492143120629  0.06811935812642211  1.0000
  C   C87       1.0  0.8585050556045223  0.6282507856891335  0.5681193580495391  1.0000
  C   C88       1.0  0.14149494363013285  0.1282507856887347  0.931880641917497  1.0000
  C   C89       1.0  0.005553607793487419  0.7017950026105116  0.1495834093097935  1.0000
  C   C90       1.0  0.9944463916550033  0.20179500261011285  0.350416590799153  1.0000
  C   C91       1.0  0.9944463920816099  0.29820499739028594  0.8504165907341256  1.0000
  C   C92       1.0  0.005553608220093826  0.7982049973906847  0.6495834092447661  1.0000
  C   C93       1.0  0.09412494448664377  0.3372977885404227  0.4362108837320584  1.0000
  C   C94       1.0  0.9058750560288957  0.8372977885408215  0.06378911638874368  1.0000
  C   C95       1.0  0.9058750564555021  0.6627022114603749  0.5637891163237163  1.0000
  C   C96       1.0  0.09412494384620157  0.16270221145997613  0.9362108836551754  1.0000
  C   C97       1.0  0.6111659047804185  0.6824497846951468  0.16384950493186276  1.0000
  C   C98       1.0  0.3888340957351209  0.18244978469474804  0.33615049518893947  1.0000
  C   C99       1.0  0.38883409616172726  0.31755021530565075  0.8361504951239119  1.0000
  C   C100      1.0  0.6111659041399763  0.8175502153060495  0.6638495048549797  1.0000
  C   C101      1.0  0.6215225164689292  0.7199284026013472  0.22792275755642366  1.0000
  C   C102      1.0  0.3784774829795616  0.21992840260094831  0.27207724255252286  1.0000
  C   C103      1.0  0.37847748340616794  0.2800715973994505  0.7720772424874954  1.0000
  C   C104      1.0  0.6215225168955357  0.7800715973998492  0.7279227574913963  1.0000
  C   C105      1.0  0.24444127554777026  0.6772771046501889  0.8744763917310991  1.0000
  C   C106      1.0  0.7555587247539334  0.17727710464979016  0.6255236082477924  1.0000
  C   C107      1.0  0.755558724327327  0.32272289535060866  0.1255236083128199  1.0000
  C   C108      1.0  0.24444127618821251  0.8227228953510074  0.3744763918079823  1.0000
  C   C109      1.0  0.02943646247120153  0.4907494402063999  0.9278337410763404  1.0000
  C   C110      1.0  0.9705635367634537  0.9907494402067986  0.5721662588906958  1.0000
  C   C111      1.0  0.9705635374038958  0.5092505597943977  0.07216625896757872  1.0000
  C   C112      1.0  0.029436463111643732  0.009250559793998907  0.4278337411532234  1.0000
  C   C113      1.0  0.0434115022416836  0.4511367704294746  0.9528386338213306  1.0000
  C   C114      1.0  0.9565884980600201  0.9511367704298734  0.5471613661575612  1.0000
  C   C115      1.0  0.9565884976334136  0.5488632295713229  0.04716136622258856  1.0000
  C   C116      1.0  0.0434115018150772  0.04886322957092415  0.452838633886358  1.0000
  C   C117      1.0  0.12028367731752529  0.43438935502514076  0.8194973591064264  1.0000
  C   C118      1.0  0.8797163219171297  0.9343893550255395  0.6805026408606096  1.0000
  C   C119      1.0  0.8797163225575719  0.5656106449756568  0.18050264093749271  1.0000
  C   C120      1.0  0.12028367795796752  0.065610644975258  0.31949735918330946  1.0000
  N   N1        1.0  0.2993580796825029  0.4150454847135796  0.3388091840823311  1.0000
  N   N2        1.0  0.7006419205992331  0.9150454847139785  0.16119081470957078  1.0000
  N   N3        1.0  0.7006419199587909  0.584954515287218  0.6611908146326877  1.0000
  N   N4        1.0  0.2993580803429127  0.08495451528681917  0.838809185346204  1.0000
  N   N5        1.0  0.303635124922402  0.557468206224306  0.3875483039636194  1.0000
  N   N6        1.0  0.6963648755931374  0.057468206223907234  0.1124516961571828  1.0000
  N   N7        1.0  0.6963648749526952  0.44253179377649154  0.6124516960802998  1.0000
  N   N8        1.0  0.3036351253490084  0.9425317937768903  0.887548303898592  1.0000
  N   N9        1.0  0.3105741467246576  0.46982935188846275  0.40348710574575336  1.0000
  N   N10       1.0  0.6894258537908818  0.9698293518888617  0.0965128943750488  1.0000
  N   N11       1.0  0.6894258531504397  0.5301706481123348  0.5965128942981658  1.0000
  N   N12       1.0  0.3105741460842154  0.030170648111936024  0.9034871056688702  1.0000
  N   N13       1.0  0.25132459814117825  0.44025549821287124  0.4370865744151546  1.0000
  N   N14       1.0  0.7486754013073127  0.94025549821327  0.06291342569379194  1.0000
  N   N15       1.0  0.748675401733919  0.5597445017879263  0.5629134256287645  1.0000
  N   N16       1.0  0.2513245985677846  0.05974450178752757  0.9370865743501272  1.0000
  O   O1        1.0  0.5234722076846637  0.6628413092604423  0.2633169859551481  1.0000
  O   O2        1.0  0.4765277917638271  0.16284130926004345  0.23668301415379847  1.0000
  O   O3        1.0  0.47652779219043356  0.3371586907403553  0.7366830140887711  1.0000
  O   O4        1.0  0.52347220811127  0.8371586907407541  0.7633169858901208  1.0000
  O   O5        1.0  0.37210399681393963  0.5190707728756125  0.1364206716455396  1.0000
  O   O6        1.0  0.6278960037015998  0.019070772875213728  0.3635793284752626  1.0000
  O   O7        1.0  0.6278960041282062  0.4809292271251851  0.8635793284102352  1.0000
  O   O8        1.0  0.37210399617349743  0.9809292271255838  0.6364206715686567  1.0000
  O   O9        1.0  0.28165636042623887  0.6572270818274315  0.7333013941173304  1.0000
  O   O10       1.0  0.7183436398754647  0.15722708182703268  0.7666986058615612  1.0000
  O   O11       1.0  0.7183436394488584  0.34277291817336614  0.2666986059265887  1.0000
  O   O12       1.0  0.2816563599996325  0.8427729181737648  0.2333013941823578  1.0000
  O   O13       1.0  0.5401044989048421  0.6165896908186146  0.08395197923115709  1.0000
  O   O14       1.0  0.45989550161069737  0.11658969081821578  0.4160480208896451  1.0000
  O   O15       1.0  0.4598955009702551  0.383410309182183  0.916048020812762  1.0000
  O   O16       1.0  0.5401044993314484  0.8834103091825818  0.5839519791661296  1.0000
  O   O17       1.0  0.1842710749781363  0.6083365353898987  0.8305005328845294  1.0000
  O   O18       1.0  0.8157289253235673  0.10833653538949993  0.6694994670943623  1.0000
  O   O19       1.0  0.815728924896961  0.39166346461089885  0.16949946715938968  1.0000
  O   O20       1.0  0.1842710745515299  0.8916634646112976  0.33050053294955684  1.0000
  F   F1        1.0  0.11048018052358038  0.2780250331932276  0.35167982221746447  1.0000
  F   F2        1.0  0.889519819991959  0.7780250331936264  0.14832017790333765  1.0000
  F   F3        1.0  0.8895198193515169  0.7219749668075701  0.6483201778264547  1.0000
  F   F4        1.0  0.11048018095018677  0.22197496680717124  0.8516798221524371  1.0000
  Cl  Cl1       1.0  0.37812254751969704  0.7139459789604233  0.5115317360841298  1.0000
  Cl  Cl2       1.0  0.6218774527820066  0.2139459789600246  0.9884682638947618  1.0000
  Cl  Cl3       1.0  0.6218774531886454  0.2860540210403742  0.48846826264274457  1.0000
  Cl  Cl4       1.0  0.3781225470930906  0.786054021040773  0.011531736149157232  1.0000
