data_image0
_chemical_formula_structural       H24C24N2O4S6Br2
_chemical_formula_sum              "H24 C24 N2 O4 S6 Br2"
_cell_length_a       4.3698254363781555
_cell_length_b       12.36840854083775
_cell_length_c       13.530187876592926
_cell_angle_alpha    92.49498201527096
_cell_angle_beta     94.92044336961227
_cell_angle_gamma    96.56801303698786

_space_group_name_H-M_alt    "P 1"
_space_group_IT_number       1

loop_
  _space_group_symop_operation_xyz
  'x, y, z'

loop_
  _atom_site_type_symbol
  _atom_site_label
  _atom_site_symmetry_multiplicity
  _atom_site_fract_x
  _atom_site_fract_y
  _atom_site_fract_z
  _atom_site_occupancy
  H   H1        1.0  0.009812113916013722  0.058082670167959705  0.7616546013412159  1.0000
  H   H2        1.0  0.9901878871468189  0.9419173296882885  0.238345398929061  1.0000
  H   H3        1.0  0.25875372990488227  0.004866584489986666  0.9182253394313548  1.0000
  H   H4        1.0  0.7412462711579504  0.9951334153662615  0.08177466083892215  1.0000
  H   H5        1.0  0.6724686118469417  0.6956286578719367  0.8884752770306763  1.0000
  H   H6        1.0  0.32753138927272896  0.3043713427651616  0.11152472250627471  1.0000
  H   H7        1.0  0.4233459801492452  0.7502385332185136  0.73330968472647  1.0000
  H   H8        1.0  0.5766540209135875  0.24976146663773452  0.26669031554380707  1.0000
  H   H9        1.0  0.32441769125802533  0.8852311185954533  0.04357914797007329  1.0000
  H   H10       1.0  0.6755823075219911  0.1147688812701178  0.9564208523088532  1.0000
  H   H11       1.0  0.29542798310996427  0.6256416326992206  0.28265885813798153  1.0000
  H   H12       1.0  0.7045720156700523  0.3743583671663507  0.717341142140945  1.0000
  H   H13       1.0  0.7538967070395913  0.6916582885981374  0.5907721299179602  1.0000
  H   H14       1.0  0.24610329402324135  0.30834171125811083  0.40922787035231667  1.0000
  H   H15       1.0  0.1265989577327031  0.6495528564576146  0.568351606845042  1.0000
  H   H16       1.0  0.8734010408128934  0.3504471433745092  0.43164839269109373  1.0000
  H   H17       1.0  0.7952895954804061  0.5490200278736056  0.5699574573420171  1.0000
  H   H18       1.0  0.20471040563926465  0.4509799727634929  0.43004254219493393  1.0000
  H   H19       1.0  0.8417986675808299  0.8065717991542679  0.33872444974554  1.0000
  H   H20       1.0  0.15820133096476663  0.19342820067785596  0.6612755497905957  1.0000
  H   H21       1.0  0.1699224437345258  0.7976083810338971  0.4275172491178292  1.0000
  H   H22       1.0  0.830077557385145  0.20239161960320132  0.5724827504191219  1.0000
  H   H23       1.0  0.8072993788493074  0.8315656339396308  0.46930221804530314  1.0000
  H   H24       1.0  0.19270061993070925  0.16843436592594044  0.5306977822336234  1.0000
  C   C1        1.0  0.7024475046135085  0.9066666224689841  0.7378071144125682  1.0000
  C   C2        1.0  0.29755249621490426  0.09333337735381664  0.26219288511491795  1.0000
  C   C3        1.0  0.936070243160951  0.9791243471945199  0.7893945064979905  1.0000
  C   C4        1.0  0.06392975790188192  0.02087565266172846  0.21060549377228654  1.0000
  C   C5        1.0  0.07605239997098594  0.9482476540717513  0.8781269846975264  1.0000
  C   C6        1.0  0.9239475988090304  0.05175234579382004  0.12187301558140012  1.0000
  C   C7        1.0  0.9877680752967654  0.846491344611345  0.9172439693478018  1.0000
  C   C8        1.0  0.012231923774509056  0.1535086560685237  0.08275603094058967  1.0000
  C   C9        1.0  0.7512484644757482  0.7754228434125677  0.8627645467133025  1.0000
  C   C10       1.0  0.2487515340698482  0.22457715641955608  0.13723545282283325  1.0000
  C   C11       1.0  0.6091023272068142  0.8051571573158534  0.7737508504238585  1.0000
  C   C12       1.0  0.39089767414727655  0.19484284335469235  0.2262491498558834  1.0000
  C   C13       1.0  0.14373587775220223  0.8224177811903157  0.010504857585997113  1.0000
  C   C14       1.0  0.8562641210278142  0.1775822186752555  0.9894951426929294  1.0000
  C   C15       1.0  0.10175121884195895  0.7349127484131052  0.06723209074595236  1.0000
  C   C16       1.0  0.8982487799380576  0.26508725145246603  0.9327679095329743  1.0000
  C   C17       1.0  0.9680659651454523  0.5667400067818227  0.16197696948864976  1.0000
  C   C18       1.0  0.03193403363456422  0.4332599930837486  0.838023030790277  1.0000
  C   C19       1.0  0.2901177199065096  0.7331040860446905  0.16395178076000422  1.0000
  C   C20       1.0  0.7098822811563233  0.26689591381155786  0.8360482195102727  1.0000
  C   C21       1.0  0.8753913200302827  0.6324164175027421  0.551458646209658  1.0000
  C   C22       1.0  0.12460868079813002  0.36758358232005867  0.44854135331782813  1.0000
  C   C23       1.0  0.9172810173782893  0.7853798353296948  0.4140288122827705  1.0000
  C   C24       1.0  0.08271898140172712  0.2146201645358763  0.5859711879961561  1.0000
  N   N1        1.0  0.19622167059189888  0.6389217627798275  0.21093649116161103  1.0000
  N   N2        1.0  0.8037783281881177  0.36107823708574377  0.7890635091173155  1.0000
  O   O1        1.0  0.4983011853324328  0.8037035219734723  0.1990067300624246  1.0000
  O   O2        1.0  0.5016988157872381  0.1962964786636262  0.8009932694745264  1.0000
  O   O3        1.0  0.4399614797030124  0.6293753873594502  0.40277150245631455  1.0000
  O   O4        1.0  0.5600385211254003  0.3706246124633507  0.5972284970711716  1.0000
  S   S1        1.0  0.8447655037878432  0.6158621219891306  0.04724385738632114  1.0000
  S   S2        1.0  0.15523449704056957  0.3841378778336702  0.9527561421411649  1.0000
  S   S3        1.0  0.8220917125050596  0.4493430781970953  0.19994514106518319  1.0000
  S   S4        1.0  0.17790828855777308  0.5506569216591529  0.8000548592050938  1.0000
  S   S5        1.0  0.7932276671263907  0.6419934148892783  0.41987720936843276  1.0000
  S   S6        1.0  0.20677233165362574  0.35800658497629284  0.5801227909104938  1.0000
  Br  Br1       1.0  0.5029707283659964  0.9462800292900649  0.6164062282222652  1.0000
  Br  Br2       1.0  0.49702927041402023  0.053719970575506225  0.3835937720566614  1.0000
