data_image0
_chemical_formula_structural       H44C44N4O20S2Cl6
_chemical_formula_sum              "H44 C44 N4 O20 S2 Cl6"
_cell_length_a       7.5343651689715
_cell_length_b       8.271785574046591
_cell_length_c       20.562896258232172
_cell_angle_alpha    83.22568260499558
_cell_angle_beta     82.27648679421169
_cell_angle_gamma    89.79478738379572

_space_group_name_H-M_alt    "P 1"
_space_group_IT_number       1

loop_
  _space_group_symop_operation_xyz
  'x, y, z'

loop_
  _atom_site_type_symbol
  _atom_site_label
  _atom_site_symmetry_multiplicity
  _atom_site_fract_x
  _atom_site_fract_y
  _atom_site_fract_z
  _atom_site_occupancy
  H   H1        1.0  0.48206853583580656  0.43628164536898406  0.5923320450900554  1.0000
  H   H2        1.0  0.7644975089255329  0.038454048957498155  0.6858245749863161  1.0000
  H   H3        1.0  0.8700364487642405  0.22458624078010062  0.7598465651697857  1.0000
  H   H4        1.0  0.8399315929068555  0.6655569685157601  0.7363094156064094  1.0000
  H   H5        1.0  0.5196627738254394  0.6010883143159315  0.7951771182243035  1.0000
  H   H6        1.0  0.6166364513339917  0.4671676408733163  0.8537522406979479  1.0000
  H   H7        1.0  0.7900884106739678  0.5909909602641784  0.9353435738503656  1.0000
  H   H8        1.0  0.7102310091449651  0.09538650150074997  0.8790768758721407  1.0000
  H   H9        1.0  0.5861258024658542  0.9137986099633071  0.7874251064881563  1.0000
  H   H10       1.0  0.12373114080969533  0.5231990980884006  0.7085398736141263  1.0000
  H   H11       1.0  0.21343232755677435  0.44680109371694593  0.7820329752559038  1.0000
  H   H12       1.0  0.19173899437606007  0.6539946430739834  0.8801434803722223  1.0000
  H   H13       1.0  0.24591907750768502  0.9724949990558732  0.8779789940222404  1.0000
  H   H14       1.0  0.8371954568528532  0.8774564073451829  0.9620243304500513  1.0000
  H   H15       1.0  0.1283351153864515  0.16568326864779276  0.5603048799466369  1.0000
  H   H16       1.0  0.8377150087922594  0.5656655487977947  0.472352048259019  1.0000
  H   H17       1.0  0.7252051911579522  0.38134266579927306  0.3986303863787195  1.0000
  H   H18       1.0  0.7603683368886689  0.9407605653005612  0.41935138302653063  1.0000
  H   H19       1.0  0.9697454728209003  0.14529016648577525  0.30041032648195615  1.0000
  H   H20       1.0  0.07480396726420029  0.005875891348262649  0.3557987843460262  1.0000
  H   H21       1.0  0.8123140189291059  0.034667093990165064  0.2145431464667665  1.0000
  H   H22       1.0  0.8256612503438182  0.5270666119441831  0.2751581951635085  1.0000
  H   H23       1.0  0.9667044902866411  0.6950647137551985  0.3674964144863085  1.0000
  H   H24       1.0  0.3797550926801367  0.15080286768819665  0.37572211598509747  1.0000
  H   H25       1.0  0.4697302231066906  0.06887486905661853  0.4483330060041752  1.0000
  H   H26       1.0  0.3854844578124914  0.953898460735227  0.27555482874797793  1.0000
  H   H27       1.0  0.3317711296357473  0.6395010015726031  0.27333317337900037  1.0000
  H   H28       1.0  0.7392305630245413  0.7544965595215044  0.18745977578029252  1.0000
  H   H29       1.0  0.3725064565174973  0.801950848979976  0.0039739250320560745  1.0000
  H   H30       1.0  0.1905834732289468  0.6358173297370167  0.09541511971293315  1.0000
  H   H31       1.0  0.5136280559513483  0.0400612435530801  0.04005156392108328  1.0000
  H   H32       1.0  0.20752639973779072  0.9048701171859608  0.17064275328448697  1.0000
  H   H33       1.0  0.8732593533953917  0.025174233587979468  0.0652418865481449  1.0000
  H   H34       1.0  0.6705063238608409  0.5356514561344574  0.08266118503289235  1.0000
  H   H35       1.0  0.4812828327545324  0.4874739753038361  0.18094567221508176  1.0000
  H   H36       1.0  0.49190162294506035  0.2822785467594302  0.10516360404746317  1.0000
  H   H37       1.0  0.5987447611121451  0.2663453784606177  0.2809848300303675  1.0000
  H   H38       1.0  0.5321770648245382  0.010484157707422464  0.14773471250744352  1.0000
  H   H39       1.0  0.04477514981343628  0.3453763375211537  0.18353249053905263  1.0000
  H   H40       1.0  0.10087129849971328  0.08799449703031016  0.964618097063584  1.0000
  H   H41       1.0  0.032077767197895214  0.2817411396629946  0.041283035161438365  1.0000
  H   H42       1.0  0.4927975643868981  0.3264186680691442  0.9737746466920401  1.0000
  H   H43       1.0  0.004390714057257687  0.5460121189793735  0.005801999022757893  1.0000
  H   H44       1.0  0.9903961707359087  0.32078571031616177  0.8642909217560023  1.0000
  C   C1        1.0  0.738459138992933  0.4350392361192283  0.7182655444009081  1.0000
  C   C2        1.0  0.6319128571284894  0.4921962791831065  0.6696901577955308  1.0000
  C   C3        1.0  0.5664019609610224  0.3893686322669206  0.6290869053553221  1.0000
  C   C4        1.0  0.6132925977284548  0.22567055713338055  0.6363142100803525  1.0000
  C   C5        1.0  0.7245685874760533  0.16545649226953596  0.6823528772825846  1.0000
  C   C6        1.0  0.7842153312250345  0.270479767234955  0.7233035964007685  1.0000
  C   C7        1.0  0.7983551744164602  0.546978295757658  0.764579818436603  1.0000
  C   C8        1.0  0.6421499157925066  0.5759732312294027  0.8177571790317242  1.0000
  C   C9        1.0  0.7516778411401626  0.7038502296402159  0.9080694802868895  1.0000
  C   C10       1.0  0.7076695313746351  0.965852675923093  0.8761577667999756  1.0000
  C   C11       1.0  0.6487354252962677  0.8771131556701306  0.8310642091409717  1.0000
  C   C12       1.0  0.1188941683026687  0.5337895720900491  0.7615492636706893  1.0000
  C   C13       1.0  0.16053192557229867  0.8417813158049708  0.7289430601268597  1.0000
  C   C14       1.0  0.15927677760440273  0.7034264269826934  0.7738531761450829  1.0000
  C   C15       1.0  0.19252371446949498  0.7441461354993518  0.8369465681930488  1.0000
  C   C16       1.0  0.21823143563967418  0.9075939413261589  0.837720801867502  1.0000
  C   C17       1.0  0.8616497441891534  0.17092879766026078  0.43730500779829506  1.0000
  C   C18       1.0  0.9727811265134184  0.11243771442789156  0.48416753894245235  1.0000
  C   C19       1.0  0.04121775120384878  0.21373979514469943  0.5246913441050945  1.0000
  C   C20       1.0  0.9935727622864078  0.37733965555738797  0.518933492446301  1.0000
  C   C21       1.0  0.8785479578430158  0.4389514329780517  0.47443308829136166  1.0000
  C   C22       1.0  0.8151924213133371  0.3353060959059316  0.43370354736086675  1.0000
  C   C23       1.0  0.7978445588785618  0.060468802310887824  0.3913052822316547  1.0000
  C   C24       1.0  0.9492285034221016  0.03517343255179163  0.3357843183931384  1.0000
  C   C25       1.0  0.8355580853698035  0.9202312909656271  0.24330719918069188  1.0000
  C   C26       1.0  0.8422816440778772  0.6559237168560987  0.27776559424926145  1.0000
  C   C27       1.0  0.9105756026516469  0.7378160413627337  0.3229648923824584  1.0000
  C   C28       1.0  0.476462233650948  0.064232298297613  0.39482024856430925  1.0000
  C   C29       1.0  0.4436338907442438  0.7545556215658193  0.42245969635664915  1.0000
  C   C30       1.0  0.43876281186219157  0.8960641172445682  0.37960516630231617  1.0000
  C   C31       1.0  0.3941615724563488  0.8609370626284176  0.3171984911867882  1.0000
  C   C32       1.0  0.3667394355054983  0.6982676514464133  0.3144626859888984  1.0000
  C   C33       1.0  0.5312840842576197  0.7392260236131553  0.08221909968922855  1.0000
  C   C34       1.0  0.3774324495948342  0.8312763909311893  0.05472832750287416  1.0000
  C   C35       1.0  0.20030184191101327  0.7673691913614361  0.0982085905285181  1.0000
  C   C36       1.0  0.04529820901254308  0.8467010226430415  0.06561553243874689  1.0000
  C   C37       1.0  0.7466595163560907  0.38547331350881653  0.17215177159972603  1.0000
  C   C38       1.0  0.5445852367607444  0.3714362756065707  0.19538919471477725  1.0000
  C   C39       1.0  0.46884758890717737  0.24035174339805257  0.15865139642323978  1.0000
  C   C40       1.0  0.2667636010899329  0.2237603490652454  0.17845292720580724  1.0000
  C   C41       1.0  0.2914463597802852  0.27634171356344706  0.9273820413196187  1.0000
  C   C42       1.0  0.09626121150221813  0.21538744035958382  0.9420212554391164  1.0000
  C   C43       1.0  0.9868735677057634  0.3116064598633861  0.9927264077182505  1.0000
  C   C44       1.0  0.7904076591314977  0.2572833748841928  0.9964512206858581  1.0000
  N   N1        1.0  0.6767340790385902  0.714330091012433  0.8521929455358315  1.0000
  N   N2        1.0  0.770530654132902  0.8551376027484773  0.923086873170616  1.0000
  N   N3        1.0  0.9049570538890578  0.9022343331350076  0.3003416069656162  1.0000
  N   N4        1.0  0.7971789607741087  0.7720909243412817  0.2291479574500919  1.0000
  O   O1        1.0  0.9443070329127851  0.48076227769867674  0.7964269331176649  1.0000
  O   O2        1.0  0.6489258970326279  0.12609013527577903  0.3614168671008405  1.0000
  O   O3        1.0  0.5661856076574251  0.6013358390497492  0.0585649611866373  1.0000
  O   O4        1.0  0.6100188287633141  0.795045534116258  0.12429248498917184  1.0000
  O   O5        1.0  0.39048507382766007  0.00010205722861670413  0.057931243470211974  1.0000
  O   O6        1.0  0.19863777047801517  0.7878506099898753  0.16502836086810843  1.0000
  O   O7        1.0  0.0018793453319834092  0.7964230948336144  0.01508086901033134  1.0000
  O   O8        1.0  0.9704083056109549  0.9695436785990039  0.09293797751948245  1.0000
  O   O9        1.0  0.8502159934011951  0.32619837354351633  0.21231678018159855  1.0000
  O   O10       1.0  0.8003787220963795  0.4541171633605726  0.11402548430351747  1.0000
  O   O11       1.0  0.5047161214223955  0.3371140507651229  0.2649433348485374  1.0000
  O   O12       1.0  0.5588763086919232  0.09498946330973392  0.17518213096128005  1.0000
  O   O13       1.0  0.1817234573281616  0.36184646409183097  0.16701961658193792  1.0000
  O   O14       1.0  0.19251142730385132  0.09393299986060084  0.2032358783740799  1.0000
  O   O15       1.0  0.35392189858242334  0.3086435161197702  0.9812683328484465  1.0000
  O   O16       1.0  0.37697659542176415  0.28630490495179806  0.871416176331229  1.0000
  O   O17       1.0  0.01506975720832336  0.21028914155475695  0.8840767303215342  1.0000
  O   O18       1.0  0.012970493308294003  0.47935266631314  0.9692635392078145  1.0000
  O   O19       1.0  0.744813233986743  0.11437315421257313  0.025478040545024203  1.0000
  O   O20       1.0  0.6875299365184264  0.35376009360283267  0.9680974167021839  1.0000
  S   S1        1.0  0.20397055707004963  0.01714085235423483  0.7622865561759191  1.0000
  S   S2        1.0  0.3937406598532359  0.5831823058735393  0.3877494768521183  1.0000
  Cl  Cl1       1.0  0.5803781506588372  0.697719636134939  0.6576096404011231  1.0000
  Cl  Cl2       1.0  0.5320559804723746  0.09570106495720049  0.5866550211447981  1.0000
  Cl  Cl3       1.0  0.1195305534759381  0.8526695016572436  0.6486364286478145  1.0000
  Cl  Cl4       1.0  0.02662560722096586  0.907160024028399  0.49400557993916666  1.0000
  Cl  Cl5       1.0  0.07806226972257131  0.5051676909744787  0.5685673520304102  1.0000
  Cl  Cl6       1.0  0.49264100363128316  0.7382447599266174  0.5019853533450367  1.0000
