data_image0
_chemical_formula_structural       H30C36N4O10S2Cl6
_chemical_formula_sum              "H30 C36 N4 O10 S2 Cl6"
_cell_length_a       10.222747169954687
_cell_length_b       10.47552196824557
_cell_length_c       11.075815723528297
_cell_angle_alpha    113.43258309945101
_cell_angle_beta     105.43777908501616
_cell_angle_gamma    95.78943776171036

_space_group_name_H-M_alt    "P 1"
_space_group_IT_number       1

loop_
  _space_group_symop_operation_xyz
  'x, y, z'

loop_
  _atom_site_type_symbol
  _atom_site_label
  _atom_site_symmetry_multiplicity
  _atom_site_fract_x
  _atom_site_fract_y
  _atom_site_fract_z
  _atom_site_occupancy
  H   H1        1.0  0.7789614287806681  0.11411901195449911  0.45283432048136274  1.0000
  H   H2        1.0  0.22103857149704137  0.8858809887822536  0.5471656798615521  1.0000
  H   H3        1.0  0.8859913750277861  0.16943901788897847  0.8773896219133848  1.0000
  H   H4        1.0  0.11400862416364346  0.8305609818897857  0.12261037841942236  1.0000
  H   H5        1.0  0.1367532731605143  0.2425063302549121  0.9104202565680859  1.0000
  H   H6        1.0  0.8632467266532946  0.7574936690559598  0.08957974271511936  1.0000
  H   H7        1.0  0.2801735351913823  0.1783884408014339  0.6356180871058124  1.0000
  H   H8        1.0  0.7198264646224265  0.8216115585094378  0.3643819121773929  1.0000
  H   H9        1.0  0.22704374582686004  0.42174189437764475  0.6514501387641078  1.0000
  H   H10       1.0  0.772956254340408  0.5782581053928137  0.3485498615635575  1.0000
  H   H11       1.0  0.298333094067077  0.4877214260111373  0.83404233042999  1.0000
  H   H12       1.0  0.7016669061001911  0.5122785737593212  0.16595766989767535  1.0000
  H   H13       1.0  0.5773997678246671  0.49781309617086744  0.9340831129784506  1.0000
  H   H14       1.0  0.4226002320995832  0.5021869041062987  0.0659168863200043  1.0000
  H   H15       1.0  0.6693089668920589  0.41764830469201447  0.5645564274330781  1.0000
  H   H16       1.0  0.3306910332752092  0.5823516950784439  0.43544357289458724  1.0000
  H   H17       1.0  0.3763751291292943  0.3706305183005804  0.5022269862412694  1.0000
  H   H18       1.0  0.6236248697086763  0.6293694810185971  0.4977730130470777  1.0000
  H   H19       1.0  0.41388189962888644  0.07921094996001601  0.7743389529053835  1.0000
  H   H20       1.0  0.5861181005383816  0.9207890498104424  0.22566104742228177  1.0000
  H   H21       1.0  0.25752334528229454  0.0561142558076175  0.8152080655395408  1.0000
  H   H22       1.0  0.7424766548849734  0.9438857439628409  0.18479193478812447  1.0000
  H   H23       1.0  0.6565940812561925  0.23529438313069911  0.9938962542460524  1.0000
  H   H24       1.0  0.3434059186680577  0.764705617146467  0.006103745052402265  1.0000
  H   H25       1.0  0.7547356068373842  0.2879662732623713  0.2594676148566271  1.0000
  H   H26       1.0  0.24526439297642483  0.7120337260485006  0.7405323844265783  1.0000
  H   H27       1.0  0.7700669528824121  0.4876018804992704  0.8212748342724514  1.0000
  H   H28       1.0  0.2299330470418381  0.5123981197778957  0.17872516502600347  1.0000
  H   H29       1.0  0.9939265024477879  0.5426921696662602  0.7539386062007275  1.0000
  H   H30       1.0  0.0060734973660210734  0.4573078296446116  0.24606139308247776  1.0000
  C   C1        1.0  0.10214437765235465  0.21544549712432567  0.70136395449015  1.0000
  C   C2        1.0  0.8978556226253548  0.784554503612427  0.29863604585276476  1.0000
  C   C3        1.0  0.9987128218657173  0.17821621333249293  0.573013023390262  1.0000
  C   C4        1.0  0.001287178058532948  0.8217837869446732  0.42698697590819273  1.0000
  C   C5        1.0  0.8569622374341197  0.14055384176448815  0.5529615204578954  1.0000
  C   C6        1.0  0.14303776140385088  0.8594461575546894  0.4470384788304518  1.0000
  C   C7        1.0  0.8180605931702737  0.13663229507120503  0.6631511910280562  1.0000
  C   C8        1.0  0.18193940710743578  0.8633677056655477  0.33684880931485855  1.0000
  C   C9        1.0  0.9177684420630828  0.17184588567429643  0.7919042861896332  1.0000
  C   C10       1.0  0.08223155775072614  0.8281541136365757  0.20809571309357233  1.0000
  C   C11       1.0  0.05805120874041766  0.21188275566224285  0.8094712754626383  1.0000
  C   C12       1.0  0.9419487910733912  0.788117243648629  0.19052872382056704  1.0000
  C   C13       1.0  0.25651985316867143  0.25725794340504604  0.7244869707074835  1.0000
  C   C14       1.0  0.743480147109038  0.7427420573317067  0.27551302963543134  1.0000
  C   C15       1.0  0.2992907260556553  0.4065571661300833  0.7343612848041977  1.0000
  C   C16       1.0  0.7007092741116127  0.5934428336403751  0.2656387155234676  1.0000
  C   C17       1.0  0.5611132685860127  0.46658936438052573  0.8248170459808307  1.0000
  C   C18       1.0  0.43888673158125535  0.5334106353899328  0.1751829543468346  1.0000
  C   C19       1.0  0.6031508605219936  0.4232644883885445  0.6276214292456828  1.0000
  C   C20       1.0  0.3968491396452744  0.5767355113819138  0.37237857108198247  1.0000
  C   C21       1.0  0.4616854841416953  0.4005627091151543  0.5979992337701796  1.0000
  C   C22       1.0  0.538314515782555  0.5994372911620118  0.40200076552827524  1.0000
  C   C23       1.0  0.3600245171763762  0.12849587085586386  0.84928555801035  1.0000
  C   C24       1.0  0.6399754829908919  0.8715041289145947  0.15071444231731548  1.0000
  C   C25       1.0  0.39283583631124713  0.1428633556872855  0.09099977934713287  1.0000
  C   C26       1.0  0.6071641639664623  0.8571366450494672  0.9090002209957819  1.0000
  C   C27       1.0  0.4456583776391875  0.15693869054287507  0.9931021214811784  1.0000
  C   C28       1.0  0.5543416225280806  0.8430613092275834  0.006897878846486948  1.0000
  C   C29       1.0  0.5933164309444642  0.2129032284569927  0.05140474413598706  1.0000
  C   C30       1.0  0.4066835693332451  0.7870967722797599  0.9485952562069276  1.0000
  C   C31       1.0  0.6480722802844903  0.239315412701142  0.1885886753833867  1.0000
  C   C32       1.0  0.3519277199932192  0.7606845880356107  0.8114113249595281  1.0000
  C   C33       1.0  0.9599436044651652  0.5001993300180043  0.5505564826166767  1.0000
  C   C34       1.0  0.04005639570210277  0.4998006697524541  0.44944351771098856  1.0000
  C   C35       1.0  0.032579297043170384  0.5238486424637134  0.9538064643066715  1.0000
  C   C36       1.0  0.9674207027706385  0.4761513568471584  0.046193534976533855  1.0000
  N   N1        1.0  0.4375958692638319  0.4286809256208067  0.7225156270288662  1.0000
  N   N2        1.0  0.5624041309034362  0.5713190741496519  0.2774843732987992  1.0000
  N   N3        1.0  0.6616159474644837  0.4638448393331355  0.7684494671448774  1.0000
  N   N4        1.0  0.3383840528132257  0.5361551614036172  0.2315505331980374  1.0000
  O   O1        1.0  0.34274258649949724  0.2649082312521645  0.8528578034456594  1.0000
  O   O2        1.0  0.6572574133143116  0.7350917680587074  0.14714219583754592  1.0000
  O   O3        1.0  0.8317016338506747  0.45811082858904406  0.5073159295314349  1.0000
  O   O4        1.0  0.16829836631659326  0.5418891711814144  0.49268407079623033  1.0000
  O   O5        1.0  0.04375214643693927  0.5479896038733937  0.678815564044926  1.0000
  O   O6        1.0  0.9562478537303288  0.45201039589706477  0.32118443628273924  1.0000
  O   O7        1.0  0.9413633019555143  0.5317575028058226  0.8517580217943582  1.0000
  O   O8        1.0  0.058636698322195244  0.46824249793093015  0.1482419785485566  1.0000
  O   O9        1.0  0.16126285361867607  0.5503173760446151  0.9816585387123199  1.0000
  O   O10       1.0  0.838737146548592  0.4496826237258434  0.018341461615345372  1.0000
  S   S1        1.0  0.520858254459097  0.19695625140311213  0.2502708050309581  1.0000
  S   S2        1.0  0.47914174437887364  0.8030437479160654  0.749729194257389  1.0000
  Cl  Cl1       1.0  0.04342363022378877  0.17533767146230203  0.43131948000069575  1.0000
  Cl  Cl2       1.0  0.9565763699434793  0.8246623283081563  0.5686805203269695  1.0000
  Cl  Cl3       1.0  0.6431707166653123  0.08334494082413262  0.6374905040995573  1.0000
  Cl  Cl4       1.0  0.356829283258938  0.9166550594530335  0.3625094951988975  1.0000
  Cl  Cl5       1.0  0.22273765277271276  0.08056262235658194  0.06914569380112699  1.0000
  Cl  Cl6       1.0  0.7772623470410962  0.91943737695429  0.9308543054820783  1.0000
