data_image0
_chemical_formula_structural       H32C40N4O6S2Cl6
_chemical_formula_sum              "H32 C40 N4 O6 S2 Cl6"
_cell_length_a       7.427692788163093
_cell_length_b       10.971501854002984
_cell_length_c       12.931837747248318
_cell_angle_alpha    84.70323511227551
_cell_angle_beta     83.43025877579373
_cell_angle_gamma    76.1472132272065

_space_group_name_H-M_alt    "P 1"
_space_group_IT_number       1

loop_
  _space_group_symop_operation_xyz
  'x, y, z'

loop_
  _atom_site_type_symbol
  _atom_site_label
  _atom_site_symmetry_multiplicity
  _atom_site_fract_x
  _atom_site_fract_y
  _atom_site_fract_z
  _atom_site_occupancy
  H   H1        1.0  0.19213561579261992  0.13658170648920645  0.5644770381641859  1.0000
  H   H2        1.0  0.8078643837023493  0.863418294070819  0.4355229617240342  1.0000
  H   H3        1.0  0.7263179742999736  0.22842263019100525  0.5596157405582951  1.0000
  H   H4        1.0  0.2736820254142993  0.771577369356756  0.44038426010085374  1.0000
  H   H5        1.0  0.7442964844880237  0.25514952655483925  0.36547423954475083  1.0000
  H   H6        1.0  0.25570351487548904  0.7448504739307914  0.6345257611235797  1.0000
  H   H7        1.0  0.43352400307006234  0.1567300981642099  0.20518701027725314  1.0000
  H   H8        1.0  0.5664759977666081  0.8432699024076977  0.7948129896124596  1.0000
  H   H9        1.0  0.26754321063601694  0.38410333436467603  0.23432795678296686  1.0000
  H   H10       1.0  0.7324567892097127  0.61589666525748  0.7656720430960715  1.0000
  H   H11       1.0  0.491016788079355  0.4215683240005086  0.21746847975646916  1.0000
  H   H12       1.0  0.5089832117663747  0.5784316756216473  0.7825315201225692  1.0000
  H   H13       1.0  0.10161863656256649  0.4425112726886933  0.08189639825084467  1.0000
  H   H14       1.0  0.8983813631517064  0.5574887268590679  0.9181036024083041  1.0000
  H   H15       1.0  0.5210506429433239  0.3612663946663256  0.8333961045047943  1.0000
  H   H16       1.0  0.4789493569024057  0.6387336049558305  0.166603895374244  1.0000
  H   H17       1.0  0.6821845041074098  0.3063976007285386  0.02289881538549002  1.0000
  H   H18       1.0  0.3178154957383198  0.6936023988936174  0.9771011844935483  1.0000
  H   H19       1.0  0.7066826863203389  0.015077189199896505  0.1669457357006715  1.0000
  H   H20       1.0  0.2933173135253907  0.9849228104222595  0.8330542641783669  1.0000
  H   H21       1.0  0.7942873122981797  0.0357009135786651  0.2841439812209156  1.0000
  H   H22       1.0  0.20571268719678945  0.9642990869813605  0.7158560186673045  1.0000
  H   H23       1.0  0.9590520412069842  0.2533377412237744  0.07813566187295644  1.0000
  H   H24       1.0  0.04094795863874558  0.7466622583983816  0.9218643380060819  1.0000
  H   H25       1.0  0.3008480914847025  0.17407038232813923  0.9875109451678971  1.0000
  H   H26       1.0  0.6991519080102668  0.8259296182318863  0.012489054720323056  1.0000
  H   H27       1.0  0.8347185124991606  0.44736209930209037  0.6699411796197747  1.0000
  H   H28       1.0  0.16528148734656908  0.5526379003200658  0.3300588202592637  1.0000
  H   H29       1.0  0.6768359093549605  0.4695911646255552  0.5068340651674875  1.0000
  H   H30       1.0  0.32316409049076916  0.5304088349966007  0.49316593471155085  1.0000
  H   H31       1.0  0.15566839193191323  0.44314363916725197  0.8417658218222153  1.0000
  H   H32       1.0  0.8443316075630558  0.5568563613927736  0.1582341780660049  1.0000
  C   C1        1.0  0.4828170881447344  0.20882533329807892  0.3542792688772929  1.0000
  C   C2        1.0  0.5171829117009953  0.7911746663240772  0.6457207310017454  1.0000
  C   C3        1.0  0.3281490458118379  0.1760491460278884  0.4125484613320583  1.0000
  C   C4        1.0  0.6718509535516748  0.8239508544577422  0.5874515393362724  1.0000
  C   C5        1.0  0.31437121398797213  0.16134770154615533  0.5213345195378132  1.0000
  C   C6        1.0  0.6856287867172414  0.8386522989513575  0.47866548113200996  1.0000
  C   C7        1.0  0.45981775812917636  0.17968484347362032  0.5728007248610237  1.0000
  C   C8        1.0  0.5401822427074939  0.8203151570982872  0.4271992750286889  1.0000
  C   C9        1.0  0.6152218150253532  0.21349549714172583  0.5177109122766118  1.0000
  C   C10       1.0  0.3847781861620774  0.7865045024923123  0.4822890876039191  1.0000
  C   C11       1.0  0.6242229114902819  0.22820455845917134  0.4094017215036021  1.0000
  C   C12       1.0  0.375777089697149  0.7717954411748666  0.5905982783769288  1.0000
  C   C13       1.0  0.5011422358304121  0.22345667016260698  0.235865999988839  1.0000
  C   C14       1.0  0.4988577636645572  0.7765433303974185  0.764133999899381  1.0000
  C   C15       1.0  0.40975788503303034  0.3573436632770871  0.19651863262887612  1.0000
  C   C16       1.0  0.5902421144619389  0.6426563372829384  0.803481367259344  1.0000
  C   C17       1.0  0.23560138831913555  0.4137418202990227  0.0375640311380228  1.0000
  C   C18       1.0  0.7643986128682952  0.5862581793350156  0.9624359687425081  1.0000
  C   C19       1.0  0.45907115660697256  0.3700638816828735  0.9131818122597739  1.0000
  C   C20       1.0  0.5409288442296977  0.629936118889034  0.0868181876299388  1.0000
  C   C21       1.0  0.5397940282571297  0.342587146392619  0.005537767068168129  1.0000
  C   C22       1.0  0.4602059712378396  0.6574128541674066  0.994462232820052  1.0000
  C   C23       1.0  0.7857469753029257  0.07172843857419765  0.20166380480089  1.0000
  C   C24       1.0  0.21425302406058674  0.928271561911433  0.7983361958674406  1.0000
  C   C25       1.0  0.10889080135122178  0.9465302071700341  0.1421659988565137  1.0000
  C   C26       1.0  0.8911091980122908  0.05346979331559643  0.8578340018118169  1.0000
  C   C27       1.0  0.9754624506765774  0.05820067062957512  0.14488936337219574  1.0000
  C   C28       1.0  0.024537548686935157  0.9417993298560554  0.8551106372961349  1.0000
  C   C29       1.0  0.04111638829739034  0.15717193045080494  0.0848634770049917  1.0000
  C   C30       1.0  0.9588836111975789  0.8428280701092206  0.9151365228832283  1.0000
  C   C31       1.0  0.2188500257790447  0.11910627301589266  0.03820040932526108  1.0000
  C   C32       1.0  0.781149974066685  0.8808937266062633  0.9617995905537774  1.0000
  C   C33       1.0  0.08758747613157215  0.4889422116154182  0.5916677804115275  1.0000
  C   C34       1.0  0.9124125247050983  0.5110577889564893  0.40833221947818515  1.0000
  C   C35       1.0  0.9061146588992438  0.47085982805413845  0.5952568679521062  1.0000
  C   C36       1.0  0.09388534059572536  0.5291401725058872  0.40474313193611383  1.0000
  C   C37       1.0  0.8183925645505764  0.4822967155737073  0.5043453140727863  1.0000
  C   C38       1.0  0.1816074366368543  0.5177032840603307  0.4956546858077447  1.0000
  C   C39       1.0  0.1841374670451511  0.47780210725537364  0.6883701098692673  1.0000
  C   C40       1.0  0.8158625328005785  0.5221978923667825  0.311629890009771  1.0000
  N   N1        1.0  0.3960654170539319  0.36991666627327513  0.08399276775031624  1.0000
  N   N2        1.0  0.6039345826603411  0.6300833332744861  0.9160072329088326  1.0000
  N   N3        1.0  0.2694082145147734  0.41484287840498396  0.9342382354391255  1.0000
  N   N4        1.0  0.7305917853309561  0.585157121217172  0.06576176443991283  1.0000
  O   O1        1.0  0.6919097178635649  0.2012645757664165  0.1942175074233381  1.0000
  O   O2        1.0  0.3080902819821647  0.7987354238557396  0.8057824924557002  1.0000
  O   O3        1.0  0.34777792282581377  0.48568665117647225  0.6860951928051184  1.0000
  O   O4        1.0  0.6522220766691555  0.5143133493835533  0.3139048070831016  1.0000
  O   O5        1.0  0.07728323135297767  0.4585565736632802  0.7754893020354511  1.0000
  O   O6        1.0  0.9227167681419914  0.5414434268967453  0.2245106978527691  1.0000
  S   S1        1.0  0.31033152223529575  0.9623742457292416  0.06687976057603034  1.0000
  S   S2        1.0  0.6896684771282168  0.03762575475638909  0.9331202400923003  1.0000
  Cl  Cl1       1.0  0.14591030663664611  0.15262007366169003  0.34965960277817754  1.0000
  Cl  Cl2       1.0  0.8540896932090835  0.8473799259604662  0.6503403971008609  1.0000
  Cl  Cl3       1.0  0.44870594376532424  0.16002344444578162  0.7073590394639002  1.0000
  Cl  Cl4       1.0  0.5512940560804054  0.8399765551763743  0.2926409604151381  1.0000
  Cl  Cl5       1.0  0.0848924258263855  0.8047500208599556  0.2015494147796189  1.0000
  Cl  Cl6       1.0  0.9151075736685836  0.19524997970006985  0.7984505851086012  1.0000
