data_image0
_chemical_formula_structural       H48C64N8O8F16I4
_chemical_formula_sum              "H48 C64 N8 O8 F16 I4"
_cell_length_a       10.294273856597263
_cell_length_b       13.322824531263898
_cell_length_c       14.15920529939801
_cell_angle_alpha    68.0784762655205
_cell_angle_beta     71.06339894756401
_cell_angle_gamma    69.27530620878365

_space_group_name_H-M_alt    "P 1"
_space_group_IT_number       1

loop_
  _space_group_symop_operation_xyz
  'x, y, z'

loop_
  _atom_site_type_symbol
  _atom_site_label
  _atom_site_symmetry_multiplicity
  _atom_site_fract_x
  _atom_site_fract_y
  _atom_site_fract_z
  _atom_site_occupancy
  H   H1        1.0  0.6178646087110714  0.310344267439723  0.041352607613570375  1.0000
  H   H2        1.0  0.7770236667256489  0.20015180228923127  0.059923530825211464  1.0000
  H   H3        1.0  0.7677695459835963  0.25320567395171506  0.21679400602580062  1.0000
  H   H4        1.0  0.7934628797443696  0.4261370762354888  0.0008022821152232689  1.0000
  H   H5        1.0  0.03490409084424741  0.3978691422131108  0.03517317741861592  1.0000
  H   H6        1.0  0.9951552627027864  0.28684623758342165  0.1501579740056961  1.0000
  H   H7        1.0  0.72947559025107  0.36126335551288896  0.3312930264666993  1.0000
  H   H8        1.0  0.7017033254543252  0.5034664806321498  0.31713717721874224  1.0000
  H   H9        1.0  0.4706705195744492  0.37867770360197195  0.3895456398352152  1.0000
  H   H10       1.0  0.5208768870263297  0.4274440034844734  0.46847980484718327  1.0000
  H   H11       1.0  0.42948006297932917  0.6252745603584705  0.36781234960222237  1.0000
  H   H12       1.0  0.2952783816773106  0.5539876893750425  0.4140030861594398  1.0000
  H   H13       1.0  0.3086826036586742  0.6710394500840788  0.2250037569279746  1.0000
  H   H14       1.0  0.34042858828749467  0.5269387536059833  0.24099863042292383  1.0000
  H   H15       1.0  0.520790954003488  0.6037892692307942  0.0901465126509041  1.0000
  H   H16       1.0  0.5695392036045512  0.6545042424041203  0.16932474517701357  1.0000
  H   H17       1.0  0.3911914663619206  0.9524499691968796  0.7048814563748377  1.0000
  H   H18       1.0  0.5202436593833689  0.9061327111183468  0.7829863636119763  1.0000
  H   H19       1.0  0.5613903272964417  0.020372838622441096  0.5475897787876364  1.0000
  H   H20       1.0  0.7328223634643096  0.9881327210429485  0.70211909120815  1.0000
  H   H21       1.0  0.7210649688333304  0.14106062484007265  0.4787185955044788  1.0000
  H   H22       1.0  0.6303713692303344  0.1797659389999923  0.5960796291866135  1.0000
  H   H23       1.0  0.8613945140833069  0.6688177048123162  0.5919812289085365  1.0000
  H   H24       1.0  0.8975336799184953  0.7176753099191268  0.6789126306534555  1.0000
  H   H25       1.0  0.09963740539975095  0.7813626638356534  0.5429484546199701  1.0000
  H   H26       1.0  0.12389596474480033  0.6377899997184191  0.5613468783864599  1.0000
  H   H27       1.0  0.031472761347937146  0.6855048415028868  0.4033156229212609  1.0000
  H   H28       1.0  0.1736450448203333  0.7457236079175157  0.3708253595317339  1.0000
  H   H29       1.0  0.008638245685215075  0.929431339452271  0.3792183153405519  1.0000
  H   H30       1.0  0.9694594973490823  0.8837568274745016  0.2922710975352404  1.0000
  H   H31       1.0  0.7658860535017343  0.8221759436567324  0.42892518659437695  1.0000
  H   H32       1.0  0.7475087439213762  0.9640607354983841  0.41214153132419085  1.0000
  H   H33       1.0  0.4441373873862671  0.428538813880059  0.7058840074099547  1.0000
  H   H34       1.0  0.6870355365050592  0.3390130476626581  0.6122591550904248  1.0000
  H   H35       1.0  0.7784217680176756  0.6453729292008693  0.45639629734159304  1.0000
  H   H36       1.0  0.5422709478581135  0.7484083990847019  0.5467794301552383  1.0000
  H   H37       1.0  0.17779946547710224  0.8246613495696402  0.7327954117181666  1.0000
  H   H38       1.0  0.9415046411539421  0.9170674453414417  0.8304331478863204  1.0000
  H   H39       1.0  0.8160350301560578  0.6223986550435197  0.9567460383893629  1.0000
  H   H40       1.0  0.045430032425216954  0.5184073503387007  0.8593268893884758  1.0000
  H   H41       1.0  0.2560340829744762  0.49806119854047304  0.0069037411838246045  1.0000
  H   H42       1.0  0.4890865628123779  0.4063428033810296  0.905507985551456  1.0000
  H   H43       1.0  0.6335647311030068  0.6906645407078678  0.8025416750772978  1.0000
  H   H44       1.0  0.4057025959760449  0.7937284982324655  0.9027014965203308  1.0000
  H   H45       1.0  0.8931636420306993  0.5775692700983137  0.1954574520305175  1.0000
  H   H46       1.0  0.6646097399570531  0.6818235866704597  0.2935746693686351  1.0000
  H   H47       1.0  0.7782157094124721  0.980764236890883  0.15538214287437663  1.0000
  H   H48       1.0  0.012073295961520344  0.8901525182617314  0.05185500621238763  1.0000
  C   C1        1.0  0.20611275250685587  0.31788419250269  0.34635646585930935  1.0000
  C   C2        1.0  0.2270371496766427  0.3304570127364616  0.24072879366997896  1.0000
  C   C3        1.0  0.35599802491390564  0.2800445824408332  0.18411923176640918  1.0000
  C   C4        1.0  0.4730509679136024  0.21854525457665225  0.22976827919118661  1.0000
  C   C5        1.0  0.45178305516070855  0.20522735615959803  0.3358419617236514  1.0000
  C   C6        1.0  0.32086687037215694  0.2520949386435703  0.39293932212113203  1.0000
  C   C7        1.0  0.6806811942391946  0.25117727656120364  0.09899291038203673  1.0000
  C   C8        1.0  0.7192517116726099  0.3139753522760115  0.15117513690353993  1.0000
  C   C9        1.0  0.8154740210279058  0.3907251252996654  0.07988313474375758  1.0000
  C   C10       1.0  0.9732149953670876  0.33518697143326537  0.07245452682150469  1.0000
  C   C11       1.0  0.1435188267444175  0.1882036637086676  0.005697489400845661  1.0000
  C   C12       1.0  0.2675849479377209  0.22304490178002695  0.9506353140541  1.0000
  C   C13       1.0  0.4003852583555079  0.14544349104468676  0.9426133526044167  1.0000
  C   C14       1.0  0.41445941284144816  0.030535745197687775  0.987846500845955  1.0000
  C   C15       1.0  0.2909882904383623  0.9959567125286167  0.04393328169863343  1.0000
  C   C16       1.0  0.15805477170028964  0.07311884576728359  0.05290161083218236  1.0000
  C   C17       1.0  0.6376023657832995  0.47604808454235664  0.2004486190110426  1.0000
  C   C18       1.0  0.6537175057204373  0.4442182373869269  0.3123806300609303  1.0000
  C   C19       1.0  0.509077622511228  0.4461724692395122  0.38896537206288384  1.0000
  C   C20       1.0  0.3985275920972019  0.5581716766129026  0.35936432637938026  1.0000
  C   C21       1.0  0.3840155389850896  0.5883395623281782  0.2470329455778071  1.0000
  C   C22       1.0  0.5287885585653347  0.5880212275772161  0.17021054529234467  1.0000
  C   C23       1.0  0.02941342333993373  0.29126369212365844  0.7637673988484125  1.0000
  C   C24       1.0  0.14917170735836455  0.33045590085865567  0.7063379028285527  1.0000
  C   C25       1.0  0.28449307483177444  0.2576753931201896  0.6947045023615269  1.0000
  C   C26       1.0  0.30686836223445974  0.14125849911750013  0.7395310944007758  1.0000
  C   C27       1.0  0.1864334441608938  0.10169396157492346  0.7969524842547983  1.0000
  C   C28       1.0  0.05093075197112644  0.1757188915880122  0.808029653601152  1.0000
  C   C29       1.0  0.48210931589230893  0.9689861943646113  0.7144593704246799  1.0000
  C   C30       1.0  0.6026160078612204  0.9679179534104656  0.6183446119995565  1.0000
  C   C31       1.0  0.728617243970979  0.0029484732709366118  0.620898243278719  1.0000
  C   C32       1.0  0.724503511801216  0.12453354399098306  0.5598260043940089  1.0000
  C   C33       1.0  0.974983377815694  0.1094222199795698  0.5096413110400335  1.0000
  C   C34       1.0  0.008510868756377339  0.12177980082491474  0.40250259691797113  1.0000
  C   C35       1.0  0.1436386339508872  0.07261849887095785  0.3521943951842556  1.0000
  C   C36       1.0  0.2528308672842366  0.00928024531570957  0.40484261049116027  1.0000
  C   C37       1.0  0.22110495745382025  0.0005634014924075312  0.510497298362416  1.0000
  C   C38       1.0  0.08652755919316071  0.049857105935237934  0.56172979973019  1.0000
  C   C39       1.0  0.8077394523151918  0.847821804134421  0.5556902592277958  1.0000
  C   C40       1.0  0.903470423736767  0.7319923365591271  0.5961987149943717  1.0000
  C   C41       1.0  0.05692822018095018  0.722408704618942  0.5319755342101347  1.0000
  C   C42       1.0  0.0635910667449708  0.7497000657928388  0.4157146306792418  1.0000
  C   C43       1.0  0.967206790923733  0.8659930841416726  0.37492136225873857  1.0000
  C   C44       1.0  0.8138490153073542  0.8783559571300492  0.43896196816154354  1.0000
  C   C45       1.0  0.47494290349740365  0.5957919076189514  0.6315811227006414  1.0000
  C   C46       1.0  0.5154811535479396  0.47890259980212213  0.65110782776994  1.0000
  C   C47       1.0  0.6491675628705567  0.42964809611363275  0.5989756299152473  1.0000
  C   C48       1.0  0.7009336348659032  0.6006559205876859  0.5122042342274845  1.0000
  C   C49       1.0  0.5701678412268332  0.6579351030492642  0.5613276278162688  1.0000
  C   C50       1.0  0.12828369583193885  0.6642457977657233  0.7891922274958396  1.0000
  C   C51       1.0  0.09944407915115919  0.7780277385089397  0.780563216056205  1.0000
  C   C52       1.0  0.9690380274725231  0.8286792554820316  0.83501145293447  1.0000
  C   C53       1.0  0.8979966692381183  0.6645170691702869  0.9047921493322734  1.0000
  C   C54       1.0  0.02542331445856588  0.6065273434480813  0.8524221330227533  1.0000
  C   C55       1.0  0.3151238795988794  0.6531673007225818  0.9616209604336877  1.0000
  C   C56       1.0  0.3376247536126873  0.5424989044261115  0.9632204686785072  1.0000
  C   C57       1.0  0.46666704056213326  0.49207726200162416  0.907250168212548  1.0000
  C   C58       1.0  0.5479921621632812  0.6505339110696607  0.8497120307218565  1.0000
  C   C59       1.0  0.4220967980190295  0.7080992349700806  0.9036414114454766  1.0000
  C   C60       1.0  0.9698210079925883  0.7263710500036581  0.11830038670959604  1.0000
  C   C61       1.0  0.871132057362703  0.6665316111597038  0.18616979316637494  1.0000
  C   C62       1.0  0.7453473327726721  0.7242681901528036  0.23969748279128472  1.0000
  C   C63       1.0  0.8091755412196115  0.8915566178245808  0.16215913199230467  1.0000
  C   C64       1.0  0.9379327389337951  0.8416435437928608  0.10522503957535695  1.0000
  N   N1        1.0  0.34369202068689914  0.6584496396700523  0.6795851144354476  1.0000
  N   N2        1.0  0.2576355208455684  0.6008557749674236  0.7394900160261497  1.0000
  N   N3        1.0  0.7401602958422243  0.4891493083281043  0.5301245161989601  1.0000
  N   N4        1.0  0.8699884494803412  0.7734817687618357  0.8961514645744867  1.0000
  N   N5        1.0  0.18963180135425448  0.7164104173353402  0.014608071123057145  1.0000
  N   N6        1.0  0.09610417119104876  0.6633639533350456  0.06602442448831888  1.0000
  N   N7        1.0  0.570326067923125  0.5442829648986456  0.8519498842588911  1.0000
  N   N8        1.0  0.7149542144195135  0.833939607699904  0.22858019518397507  1.0000
  O   O1        1.0  0.010617818613571767  0.26030350345815745  0.00969169326246264  1.0000
  O   O2        1.0  0.7752671722699496  0.47755117037262  0.12844589597313893  1.0000
  O   O3        1.0  0.5929661237274967  0.39263765132590456  0.18704752430442206  1.0000
  O   O4        1.0  0.6028354472680446  0.17153341976118472  0.17549824862233107  1.0000
  O   O5        1.0  0.44400766958766746  0.07833507231101086  0.7293828539143352  1.0000
  O   O6        1.0  0.8448284503307019  0.15503408448755643  0.5636525359091411  1.0000
  O   O7        1.0  0.8517192232305558  0.9289848088145537  0.5751869960619562  1.0000
  O   O8        1.0  0.6645595386057686  0.854005029759539  0.6163284696242666  1.0000
  F   F1        1.0  0.5161625480767742  0.18478224754537315  0.8866704515000338  1.0000
  F   F2        1.0  0.2574995651349997  0.33414029254180694  0.9028801802600418  1.0000
  F   F3        1.0  0.0397874667564918  0.03747220326688735  0.10846823625054562  1.0000
  F   F4        1.0  0.29794111203824464  0.8854494092211964  0.0905433540374961  1.0000
  F   F5        1.0  0.11942960334714371  0.3922009971502562  0.19021895001811953  1.0000
  F   F6        1.0  0.36979522602657255  0.2921758145946557  0.08211413634348613  1.0000
  F   F7        1.0  0.308289503780216  0.23341727673256532  0.49622616751449206  1.0000
  F   F8        1.0  0.5633346835800616  0.14864255703915086  0.38289279303202406  1.0000
  F   F9        1.0  0.9397988397168582  0.1315103260186287  0.8673749848933414  1.0000
  F   F10       1.0  0.2010464560989914  0.9900922899845974  0.8463015199868319  1.0000
  F   F11       1.0  0.1362662653528302  0.4417948518843116  0.6605119964767789  1.0000
  F   F12       1.0  0.398526419730292  0.2989782534077998  0.6385319015624967  1.0000
  F   F13       1.0  0.32282208333706974  0.9413630441009188  0.5673168071553061  1.0000
  F   F14       1.0  0.061042724954980566  0.037273984652472655  0.6650629178049503  1.0000
  F   F15       1.0  0.9070059041136871  0.18167552125467495  0.34566304415291776  1.0000
  F   F16       1.0  0.16683447525763462  0.0889987881806658  0.24799632883230152  1.0000
  I   I1        1.0  0.006032324997087753  0.39304505417090413  0.4306300986668687  1.0000
  I   I2        1.0  0.6135404151872431  0.9117340101748785  0.9617354381698395  1.0000
  I   I3        1.0  0.8278220924207795  0.4055841617097065  0.7918474361757163  1.0000
  I   I4        1.0  0.456999188847921  0.9315857498108475  0.32647527933862236  1.0000
