data_image0
_chemical_formula_structural       H56C40N16Cl4I12
_chemical_formula_sum              "H56 C40 N16 Cl4 I12"
_cell_length_a       10.905164113280275
_cell_length_b       14.198808674291929
_cell_length_c       10.805210555589998
_cell_angle_alpha    90.0
_cell_angle_beta     100.51258548597093
_cell_angle_gamma    90.0

_space_group_name_H-M_alt    "P 1"
_space_group_IT_number       1

loop_
  _space_group_symop_operation_xyz
  'x, y, z'

loop_
  _atom_site_type_symbol
  _atom_site_label
  _atom_site_symmetry_multiplicity
  _atom_site_fract_x
  _atom_site_fract_y
  _atom_site_fract_z
  _atom_site_occupancy
  H   H1        1.0  0.029538372676245993  0.6554854117339622  0.6648895240039723  1.0000
  H   H2        1.0  0.9704616273497806  0.1554854122372414  0.8351104762448534  1.0000
  H   H3        1.0  0.9704616268081881  0.34451458796376383  0.33511047633432384  1.0000
  H   H4        1.0  0.02953837305255354  0.8445145881647691  0.16488952409851163  1.0000
  H   H5        1.0  0.963579594699892  0.5089217008102515  0.7290864928529086  1.0000
  H   H6        1.0  0.036420405326134504  0.008921701313530601  0.7709135073959171  1.0000
  H   H7        1.0  0.03642040553721916  0.4910782988874747  0.2709135065491912  1.0000
  H   H8        1.0  0.9635795950761995  0.99107829908848  0.229086492947448  1.0000
  H   H9        1.0  0.3720341598535976  0.5712387592548837  0.47355616928633343  1.0000
  H   H10       1.0  0.6279658398419214  0.07123875905387832  0.026443830205236718  1.0000
  H   H11       1.0  0.6279658394656139  0.428761241147127  0.5264438301106973  1.0000
  H   H12       1.0  0.3720341605604127  0.9287612413481322  0.9735561701381283  1.0000
  H   H13       1.0  0.375273533801733  0.446888816206718  0.48182552031813486  1.0000
  H   H14       1.0  0.6247264660590088  0.9468888164077233  0.018174480114700582  1.0000
  H   H15       1.0  0.624726466600601  0.5531111841952925  0.5181744800252303  1.0000
  H   H16       1.0  0.3752735334254255  0.053111183994287214  0.9818255202235956  1.0000
  H   H17       1.0  0.20543298653931963  0.662423351547065  0.5465832584511845  1.0000
  H   H18       1.0  0.794567013486707  0.16242335134605984  0.9534167417976411  1.0000
  H   H19       1.0  0.7945670138630144  0.3375766488549454  0.4534167418921806  1.0000
  H   H20       1.0  0.20543298599772733  0.8375766483516662  0.04658325854065485  1.0000
  H   H21       1.0  0.23072020867622914  0.3568837270956958  0.579625378380233  1.0000
  H   H22       1.0  0.7692797913497973  0.8568837272967011  0.9203746218685926  1.0000
  H   H23       1.0  0.769279791726105  0.6431162726020302  0.42037462196313213  1.0000
  H   H24       1.0  0.2307202090525367  0.14311627240102498  0.0796253784747724  1.0000
  H   H25       1.0  0.05294564471114424  0.36360894483687806  0.696382600216629  1.0000
  H   H26       1.0  0.9470543553148822  0.8636089450378833  0.8036174000321965  1.0000
  H   H27       1.0  0.9470543556911898  0.636391054860848  0.303617400126736  1.0000
  H   H28       1.0  0.05294564400432909  0.1363910553641272  0.19638259936483418  1.0000
  H   H29       1.0  0.37231411805633685  0.32270099450639267  0.9537461304110191  1.0000
  H   H30       1.0  0.6276858818044668  0.8227009940031135  0.5462538688965414  1.0000
  H   H31       1.0  0.6276858812628745  0.677299005895618  0.04625386898601164  1.0000
  H   H32       1.0  0.3723141184326444  0.17729900569461263  0.4537461305055585  1.0000
  H   H33       1.0  0.4805940824393737  0.6566178208232623  0.6940372059027285  1.0000
  H   H34       1.0  0.5194059175866529  0.15661782132654142  0.805962794346097  1.0000
  H   H35       1.0  0.5194059179629604  0.3433821788744639  0.30596279444063657  1.0000
  H   H36       1.0  0.4805940818977814  0.8433821790754691  0.19403720599219884  1.0000
  H   H37       1.0  0.4015373529485599  0.707629616010799  0.8044547001890464  1.0000
  H   H38       1.0  0.5984626470774667  0.20762961651407819  0.6955453000597793  1.0000
  H   H39       1.0  0.5984626465358744  0.2923703836869271  0.19554530014924967  1.0000
  H   H40       1.0  0.4015373533248674  0.7923703838879324  0.3044547002835858  1.0000
  H   H41       1.0  0.2683220297422617  0.45317332443884617  0.028992956518704264  1.0000
  H   H42       1.0  0.7316779699532572  0.9531733246398515  0.47100704297286594  1.0000
  H   H43       1.0  0.7316779695769497  0.5468266759631644  0.9710070428783265  1.0000
  H   H44       1.0  0.26832203028385393  0.046826675762159084  0.5289929564292339  1.0000
  H   H45       1.0  0.2965527938453917  0.6133932345865859  0.9447226878120146  1.0000
  H   H46       1.0  0.7034472061806348  0.11339323508986507  0.555277312436811  1.0000
  H   H47       1.0  0.7034472056390425  0.3866067651111402  0.05527731252628138  1.0000
  H   H48       1.0  0.2965527942216992  0.8866067653121456  0.444722687906554  1.0000
  H   H49       1.0  0.5330607019351121  0.48568719236889785  0.7067227364362846  1.0000
  H   H50       1.0  0.4669392979256916  0.9856871925699031  0.7932772628712759  1.0000
  H   H51       1.0  0.46693929738409923  0.5143128073288282  0.2932772629607462  1.0000
  H   H52       1.0  0.5330607023114197  0.01431280712782296  0.206722736530824  1.0000
  H   H53       1.0  0.49069143258945125  0.33109904061964845  0.7986673727783475  1.0000
  H   H54       1.0  0.5093085674365753  0.8310990408206538  0.7013326274704781  1.0000
  H   H55       1.0  0.5093085678128829  0.6689009590780777  0.20133262756501755  1.0000
  H   H56       1.0  0.49069143204785887  0.16890095958135684  0.29866737286781786  1.0000
  C   C1        1.0  0.07829751734232104  0.5925296053346217  0.6428472534069058  1.0000
  C   C2        1.0  0.9217024826837056  0.09252960583790086  0.8571527468419199  1.0000
  C   C3        1.0  0.9217024830600131  0.40747039436310445  0.35715274693645926  1.0000
  C   C4        1.0  0.07829751680072876  0.9074703945641097  0.14284725349637614  1.0000
  C   C5        1.0  0.174630562996919  0.5948399857864264  0.5775221750329632  1.0000
  C   C6        1.0  0.8253694368638845  0.09483998558542119  0.9224778242745971  1.0000
  C   C7        1.0  0.8253694372401921  0.40516001391129963  0.4224778243691366  1.0000
  C   C8        1.0  0.17463056245532674  0.9051600141123048  0.07752217512243356  1.0000
  C   C9        1.0  0.23390241907039297  0.5096044918966299  0.5519845488026183  1.0000
  C   C10       1.0  0.7660975809556336  0.009604491695624644  0.9480154514462075  1.0000
  C   C11       1.0  0.7660975804140414  0.4903955078010962  0.44801545153567773  1.0000
  C   C12       1.0  0.23390241944670054  0.9903955080021015  0.05198454889715774  1.0000
  C   C13       1.0  0.18821758565019883  0.42418058360803634  0.595689506420383  1.0000
  C   C14       1.0  0.8117824142106048  0.9241805831047573  0.9043104928871775  1.0000
  C   C15       1.0  0.8117824145869124  0.5758194167939741  0.40431049298171673  1.0000
  C   C16       1.0  0.18821758510860656  0.07581941659296888  0.0956895065098534  1.0000
  C   C17       1.0  0.09148198240677746  0.4265105565486465  0.6604127137210212  1.0000
  C   C18       1.0  0.908518017619249  0.9265105567496518  0.8395872865278046  1.0000
  C   C19       1.0  0.9085180170776569  0.5734894431490796  0.33958728661727483  1.0000
  C   C20       1.0  0.09148198278308499  0.0734894436523588  0.16041271381556058  1.0000
  C   C21       1.0  0.3236823889872728  0.46516901111278425  0.9561892393120729  1.0000
  C   C22       1.0  0.6763176108735308  0.9651690113137895  0.5438107599954874  1.0000
  C   C23       1.0  0.6763176103319386  0.5348309885849418  0.04381076008495777  1.0000
  C   C24       1.0  0.32368238936358035  0.03483098838393657  0.45618923940661243  1.0000
  C   C25       1.0  0.3408158737785806  0.5528362301417832  0.9090958183957603  1.0000
  C   C26       1.0  0.6591841262474459  0.052836229940777885  0.5909041818530654  1.0000
  C   C27       1.0  0.6591841266237535  0.44716377026022736  0.09090418194760473  1.0000
  C   C28       1.0  0.34081587323698836  0.9471637704612327  0.40909581848523074  1.0000
  C   C29       1.0  0.4168645226841399  0.5642375261035426  0.8161469928059426  1.0000
  C   C30       1.0  0.5831354773418866  0.06423752590253735  0.6838530074428831  1.0000
  C   C31       1.0  0.5831354768002943  0.4357624742984679  0.18385300753235348  1.0000
  C   C32       1.0  0.4168645230604475  0.9357624737951887  0.316146992900482  1.0000
  C   C33       1.0  0.4719604235180977  0.48167551918513757  0.7755546416978976  1.0000
  C   C34       1.0  0.5280395765079289  0.9816755193861428  0.7244453585509281  1.0000
  C   C35       1.0  0.5280395768842364  0.5183244805125885  0.22444535864546747  1.0000
  C   C36       1.0  0.4719604238944053  0.018324481015867696  0.27555464179243705  1.0000
  C   C37       1.0  0.45021766488175463  0.3961001326951444  0.8254251189751839  1.0000
  C   C38       1.0  0.5497823351442719  0.8961001328961496  0.6745748812736418  1.0000
  C   C39       1.0  0.5497823355205795  0.6038998677068662  0.1745748813681812  1.0000
  C   C40       1.0  0.45021766434016236  0.1038998675058609  0.3254251190646542  1.0000
  N   N1        1.0  0.038016469110457154  0.5095274699418246  0.6830632962704976  1.0000
  N   N2        1.0  0.9619835309155693  0.009527469740819373  0.8169367039783281  1.0000
  N   N3        1.0  0.9619835312918769  0.49047252975590144  0.31693670407286756  1.0000
  N   N4        1.0  0.038016469486764695  0.9904725299569067  0.18306329636503693  1.0000
  N   N5        1.0  0.32968608253483894  0.5092788293635209  0.4904408300381479  1.0000
  N   N6        1.0  0.6703139182438027  0.00927882916251564  0.009559170399756631  1.0000
  N   N7        1.0  0.6703139178674952  0.49072117033420515  0.5095591703052172  1.0000
  N   N8        1.0  0.32968608215853146  0.9907211705352105  0.9904408299436084  1.0000
  N   N9        1.0  0.37751697133295536  0.3883536813890467  0.9140186108777063  1.0000
  N   N10       1.0  0.6224830286930713  0.8883536815900519  0.5859813893711194  1.0000
  N   N11       1.0  0.6224830290693787  0.6116463183086794  0.0859813894656589  1.0000
  N   N12       1.0  0.37751697079136315  0.11164631881195859  0.41401861096717657  1.0000
  N   N13       1.0  0.4357717274681612  0.6488481689791789  0.769086242246232  1.0000
  N   N14       1.0  0.5642282723926425  0.14884816877817358  0.7309137570613283  1.0000
  N   N15       1.0  0.56422827276895  0.3511518314228317  0.2309137571558678  1.0000
  N   N16       1.0  0.43577172692656896  0.8511518309195526  0.2690862423357024  1.0000
  Cl  Cl1       1.0  0.5174458518751087  0.6870430924013049  0.49789172587590347  1.0000
  Cl  Cl2       1.0  0.48255414782041023  0.1870430929045841  0.0021082736156667393  1.0000
  Cl  Cl3       1.0  0.4825541483620025  0.3129569072964211  0.5021082735261964  1.0000
  Cl  Cl4       1.0  0.5174458514988012  0.8129569074974264  0.9978917257813639  1.0000
  I   I1        1.0  0.8076123178436291  0.35678827965140053  0.7961695576578472  1.0000
  I   I2        1.0  0.19238768218239743  0.8567882798524057  0.7038304425909784  1.0000
  I   I3        1.0  0.19238768164080514  0.6432117200463255  0.20383044268044875  1.0000
  I   I4        1.0  0.8076123180547138  0.14321172054960477  0.2961695568111214  1.0000
  I   I5        1.0  0.010322978169931682  0.3405599590024154  0.01966179747615678  1.0000
  I   I6        1.0  0.9896770216908102  0.8405599592034207  0.48033820295667873  1.0000
  I   I7        1.0  0.9896770222324024  0.6594400413995951  0.9803382028672084  1.0000
  I   I8        1.0  0.010322977793624136  0.15944004119858984  0.5196617973816174  1.0000
  I   I9        1.0  0.212814331203189  0.33029403435030585  0.23778327735931282  1.0000
  I   I10       1.0  0.78718566849233  0.8302940345513111  0.2622167221322574  1.0000
  I   I11       1.0  0.7871856690339223  0.6697059653474201  0.762216722042787  1.0000
  I   I12       1.0  0.21281433082688142  0.16970596514641492  0.7377832772647734  1.0000
