data_image0
_chemical_formula_structural       H40C28N20O24
_chemical_formula_sum              "H40 C28 N20 O24"
_cell_length_a       9.849013677301306
_cell_length_b       7.897930585726552
_cell_length_c       13.746533472748636
_cell_angle_alpha    90.0
_cell_angle_beta     97.48865143538913
_cell_angle_gamma    90.0

_space_group_name_H-M_alt    "P 1"
_space_group_IT_number       1

loop_
  _space_group_symop_operation_xyz
  'x, y, z'

loop_
  _atom_site_type_symbol
  _atom_site_label
  _atom_site_symmetry_multiplicity
  _atom_site_fract_x
  _atom_site_fract_y
  _atom_site_fract_z
  _atom_site_occupancy
  H   H1        1.0  0.4322306761920124  0.27362562845330407  0.33662189631131645  1.0000
  H   H2        1.0  0.06776932393416954  0.7736256293569236  0.16337810361271227  1.0000
  H   H3        1.0  0.5677693240603515  0.7263743708216259  0.663378103536741  1.0000
  H   H4        1.0  0.932230676321458  0.22637437118416093  0.8366218969631024  1.0000
  H   H5        1.0  0.5042245998263977  0.16270774047095327  0.435030337209063  1.0000
  H   H6        1.0  0.9957754001084786  0.6627077401084183  0.06496966280453136  1.0000
  H   H7        1.0  0.4957753994019067  0.8372922600701311  0.5649696625456885  1.0000
  H   H8        1.0  0.004224600143885169  0.3372922604326662  0.9350303370435261  1.0000
  H   H9        1.0  0.45433898304720627  0.4329716731342256  0.1589493103595934  1.0000
  H   H10       1.0  0.04566101707897568  0.9329716727716906  0.3410506895644353  1.0000
  H   H11       1.0  0.5456610172051576  0.5670283274068588  0.8410506894884641  1.0000
  H   H12       1.0  0.9543389821525923  0.06702832650323938  0.6589493109180733  1.0000
  H   H13       1.0  0.3264147000633438  0.594894758696816  0.153223736019323  1.0000
  H   H14       1.0  0.17358530006283815  0.09489475905935099  0.3467762639047057  1.0000
  H   H15       1.0  0.6735853001890202  0.40510524184426844  0.8467762638287344  1.0000
  H   H16       1.0  0.8264147001895257  0.9051052414817335  0.6532237359433517  1.0000
  H   H17       1.0  0.28209045564903673  0.4199099440040107  0.004628477415890402  1.0000
  H   H18       1.0  0.2179095444771452  0.9199099436414757  0.4953715225081383  1.0000
  H   H19       1.0  0.7179095435825313  0.5800900565370738  0.9953715230666182  1.0000
  H   H20       1.0  0.7820904557752186  0.08009005563345431  0.5046284773399191  1.0000
  H   H21       1.0  0.28495292561607477  0.23131067058269678  0.0777864814414218  1.0000
  H   H22       1.0  0.2150470745101072  0.7313106702201618  0.4222135184826069  1.0000
  H   H23       1.0  0.7150470746395529  0.7686893299583877  0.9222135191343929  1.0000
  H   H24       1.0  0.7849529257422567  0.2686893290547682  0.5777864813654506  1.0000
  H   H25       1.0  0.09824429819768715  0.19342070095687855  0.1771045718502791  1.0000
  H   H26       1.0  0.40175570192849475  0.693420701860498  0.3228954280737496  1.0000
  H   H27       1.0  0.9017557020546768  0.8065792983180515  0.8228954279977784  1.0000
  H   H28       1.0  0.5982442983271328  0.3065792986805865  0.677104572502065  1.0000
  H   H29       1.0  0.9715993627341244  0.35769898194668837  0.1711121896531998  1.0000
  H   H30       1.0  0.5284006372007519  0.8576989815841534  0.3288878103603946  1.0000
  H   H31       1.0  0.02840063751823943  0.642301018594396  0.8288878101948576  1.0000
  H   H32       1.0  0.47159936305161193  0.14230101769077663  0.6711121894876628  1.0000
  H   H33       1.0  0.14259555767635798  0.5568390659127865  0.25633035426453293  1.0000
  H   H34       1.0  0.35740444244982394  0.05683906627532147  0.24366964565949575  1.0000
  H   H35       1.0  0.8574044425760059  0.4431609333621435  0.7436696455835246  1.0000
  H   H36       1.0  0.6425955578025399  0.943160934265763  0.7563303541885616  1.0000
  H   H37       1.0  0.1453437209340369  0.3673765524406773  0.32692479509057837  1.0000
  H   H38       1.0  0.35465627919214504  0.8673765520781422  0.17307520483345032  1.0000
  H   H39       1.0  0.8546562782942675  0.6326234481004072  0.673075204664173  1.0000
  H   H40       1.0  0.6453437210602189  0.13262344846294216  0.826924795014607  1.0000
  C   C1        1.0  0.7602230411637579  0.5651805180545743  0.44039008419008835  1.0000
  C   C2        1.0  0.7397769587711184  0.0651805171509548  0.05960991582350595  1.0000
  C   C3        1.0  0.23977695908860588  0.4348194824865102  0.559609915657969  1.0000
  C   C4        1.0  0.26022304148124553  0.9348194821239753  0.9403900840245516  1.0000
  C   C5        1.0  0.7193356296250982  0.42044503607073985  0.3873857304043823  1.0000
  C   C6        1.0  0.7806643703097781  0.9204450369743593  0.11261426960921202  1.0000
  C   C7        1.0  0.28066437063052924  0.5795549632041901  0.6126142701714323  1.0000
  C   C8        1.0  0.21933562994258576  0.07955496356672513  0.8873857302388455  1.0000
  C   C9        1.0  0.5627737766778503  0.5003747357747196  0.4784488838411441  1.0000
  C   C10       1.0  0.9372262232570262  0.0003747361372545837  0.021551116172450275  1.0000
  C   C11       1.0  0.4372262235745135  0.4996252647663649  0.5215511160069133  1.0000
  C   C12       1.0  0.06277377597127837  0.9996252644038299  0.9784488835823012  1.0000
  C   C13       1.0  0.3448501823311274  0.4575247782666583  0.15905153489383217  1.0000
  C   C14       1.0  0.15514981779505452  0.9575247779041233  0.34094846503019655  1.0000
  C   C15       1.0  0.6551498179245001  0.5424752222744261  0.8409484656819824  1.0000
  C   C16       1.0  0.8448501824573093  0.042475222636961116  0.6590515348178609  1.0000
  C   C17       1.0  0.2602996735089166  0.36773921199673576  0.0748689696614558  1.0000
  C   C18       1.0  0.23970032661726537  0.8677392116342008  0.425131030262573  1.0000
  C   C19       1.0  0.7397003267434473  0.6322607885443488  0.9251310301866016  1.0000
  C   C20       1.0  0.7602996736350985  0.13226078764072927  0.5748689695854845  1.0000
  C   C21       1.0  0.08106691548760474  0.3315919482418547  0.1715289353629284  1.0000
  C   C22       1.0  0.4189330836145177  0.8315919478793198  0.32847106446779434  1.0000
  C   C23       1.0  0.9189330837406997  0.6684080522992298  0.8284710643918229  1.0000
  C   C24       1.0  0.5810669156137868  0.16840805139561033  0.6715289352869572  1.0000
  C   C25       1.0  0.16583404084043202  0.4204233759664704  0.2565667446064721  1.0000
  C   C26       1.0  0.33416595928901355  0.9204233756039354  0.2434332560453138  1.0000
  C   C27       1.0  0.8341659594151954  0.5795766245746141  0.7434332559693425  1.0000
  C   C28       1.0  0.6658340409666139  0.07957662367099463  0.7565667445305008  1.0000
  N   N1        1.0  0.8856339665742367  0.6557818018001156  0.4381975927765439  1.0000
  N   N2        1.0  0.6143660333606399  0.15578180216265047  0.061802407237050445  1.0000
  N   N3        1.0  0.11436603367812727  0.3442181974748145  0.5618024070715135  1.0000
  N   N4        1.0  0.3856339668917241  0.8442181971122795  0.9381975926110069  1.0000
  N   N5        1.0  0.7805372131873834  0.3233743070134937  0.3144377381325767  1.0000
  N   N6        1.0  0.7194627867474931  0.8233743066509587  0.18556226188101768  1.0000
  N   N7        1.0  0.21946278604418465  0.6766256935275908  0.685562262349932  1.0000
  N   N8        1.0  0.28053721350487093  0.17662569389012578  0.8144377379670397  1.0000
  N   N9        1.0  0.5235548351121166  0.23334208625872152  0.3754103191058795  1.0000
  N   N10       1.0  0.9764451648227598  0.733342087162341  0.12458968090771477  1.0000
  N   N11       1.0  0.47644516514024715  0.7666579130162084  0.6245896807421779  1.0000
  N   N12       1.0  0.023554834405544692  0.2666579133787435  0.8754103188470367  1.0000
  N   N13       1.0  0.5938482197537073  0.37830762091018555  0.4113231346220301  1.0000
  N   N14       1.0  0.906151780181169  0.8783076205476505  0.08867686539156425  1.0000
  N   N15       1.0  0.40615177947786074  0.6216923783647444  0.5886768658604785  1.0000
  N   N16       1.0  0.09384822007119484  0.1216923787272795  0.9113231344564932  1.0000
  N   N17       1.0  0.6629525141782286  0.6136209096036481  0.4958224010950115  1.0000
  N   N18       1.0  0.8370474857566477  0.11362090996618304  0.004177598918582827  1.0000
  N   N19       1.0  0.3370474860773989  0.38637909093743644  0.5041775994808031  1.0000
  N   N20       1.0  0.16295251449571613  0.8863790905749014  0.9958224009294745  1.0000
  O   O1        1.0  0.9678305522992732  0.5922800218646993  0.3864074068864788  1.0000
  O   O2        1.0  0.5321694476356031  0.09228002222723432  0.11359259312711555  1.0000
  O   O3        1.0  0.03216944795635423  0.4077199786763851  0.6135925936893359  1.0000
  O   O4        1.0  0.46783055261676076  0.9077199783138502  0.8864074067209419  1.0000
  O   O5        1.0  0.9047064195922722  0.7876961088064182  0.4863928503480304  1.0000
  O   O6        1.0  0.5952935803426042  0.28769610790279865  0.013607149665563966  1.0000
  O   O7        1.0  0.09529357963929583  0.21230389173466635  0.5136071501344782  1.0000
  O   O8        1.0  0.4047064199097597  0.7123038913721313  0.9863928501824935  1.0000
  O   O9        1.0  0.735459430191926  0.35332739756452153  0.22788122265122562  1.0000
  O   O10       1.0  0.7645405697429505  0.8533273972019866  0.2721187773623687  1.0000
  O   O11       1.0  0.26454056903637846  0.6466726029765629  0.7721187771035257  1.0000
  O   O12       1.0  0.23545943050941348  0.14667260207294347  0.7278812224856887  1.0000
  O   O13       1.0  0.8705122504960096  0.22086622831967181  0.34430440267780454  1.0000
  O   O14       1.0  0.6294877494388669  0.7208662279571368  0.1556955973357898  1.0000
  O   O15       1.0  0.12948774975635435  0.7791337722214127  0.6556955971702528  1.0000
  O   O16       1.0  0.370512250813497  0.27913377131779316  0.8443044025122676  1.0000
  O   O17       1.0  0.3098181036825684  0.3978089571562081  0.2517953934042133  1.0000
  O   O18       1.0  0.19018189644361355  0.8978089567936731  0.2482046065198154  1.0000
  O   O19       1.0  0.6901818965730591  0.6021910421187219  0.7482046071716013  1.0000
  O   O20       1.0  0.8098181027846909  0.10219104248125686  0.751795393234936  1.0000
  O   O21       1.0  0.1160392638622529  0.39131527891438017  0.0790725041019843  1.0000
  O   O22       1.0  0.383960736263929  0.8913152785518452  0.4209274958220444  1.0000
  O   O23       1.0  0.8839607363901111  0.6086847216267043  0.9209274957460731  1.0000
  O   O24       1.0  0.6160392639884349  0.10868472198923927  0.579072504026013  1.0000
