data_image0
_chemical_formula_structural       H30C36N12Br16I10
_chemical_formula_sum              "H30 C36 N12 Br16 I10"
_cell_length_a       8.061699261354063
_cell_length_b       14.055219759727228
_cell_length_c       16.254356591755524
_cell_angle_alpha    91.03953375232607
_cell_angle_beta     100.02440007085458
_cell_angle_gamma    99.90241130879556

_space_group_name_H-M_alt    "P 1"
_space_group_IT_number       1

loop_
  _space_group_symop_operation_xyz
  'x, y, z'

loop_
  _atom_site_type_symbol
  _atom_site_label
  _atom_site_symmetry_multiplicity
  _atom_site_fract_x
  _atom_site_fract_y
  _atom_site_fract_z
  _atom_site_occupancy
  H   H1        1.0  0.2549604450125504  0.13398157115432277  0.5021763883574352  1.0000
  H   H2        1.0  0.7450395547653574  0.8660184290198778  0.49782361192529956  1.0000
  H   H3        1.0  0.39169305022741213  0.23492887065869306  0.6326407590680404  1.0000
  H   H4        1.0  0.6083069495504955  0.7650711295155073  0.3673592412146942  1.0000
  H   H5        1.0  0.3717134355681587  0.41187359122911493  0.6386895349596349  1.0000
  H   H6        1.0  0.6282865642097489  0.5881264089450855  0.3613104653230998  1.0000
  H   H7        1.0  0.21619310866710048  0.480873422676576  0.5104150750455364  1.0000
  H   H8        1.0  0.7838068921282616  0.5191265774564264  0.4895849246155252  1.0000
  H   H9        1.0  0.16036950754249985  0.9418464585531916  0.3966113943694617  1.0000
  H   H10       1.0  0.8396304922354079  0.058153541621008706  0.603388605913273  1.0000
  H   H11       1.0  0.12341438494573623  0.7615371259278568  0.3807122566496129  1.0000
  H   H12       1.0  0.8765856148321715  0.23846287424634358  0.6192877436331217  1.0000
  H   H13       1.0  0.93728738048987  0.6750425437945861  0.25119949603080294  1.0000
  H   H14       1.0  0.06271261906544208  0.32495745634398054  0.7488005036264174  1.0000
  H   H15       1.0  0.7973813262433276  0.7762927877468778  0.14063648098681927  1.0000
  H   H16       1.0  0.20261867331198452  0.2237072123916889  0.8593635186704013  1.0000
  H   H17       1.0  0.7549809944078845  0.11758820026589269  0.0732599324395165  1.0000
  H   H18       1.0  0.24501900514742764  0.8824117998726739  0.9267400672177039  1.0000
  H   H19       1.0  0.6199285469142032  0.2139325349881301  0.9604308608376295  1.0000
  H   H20       1.0  0.38007145241456336  0.7860674644282085  0.03956913881938338  1.0000
  H   H21       1.0  0.6057330579524066  0.3872490621691405  0.9923898489223815  1.0000
  H   H22       1.0  0.39426694306555105  0.6127509379994956  0.007610151364194524  1.0000
  H   H23       1.0  0.7345275993448827  0.45940900873738905  0.13897930630328628  1.0000
  H   H24       1.0  0.2654724004330251  0.5405909914368113  0.8610206939794485  1.0000
  H   H25       1.0  0.0957078254161848  0.3793902334558451  0.39366933256680425  1.0000
  H   H26       1.0  0.9042921743617229  0.6206097667183552  0.6063306677159304  1.0000
  H   H27       1.0  0.8423403114990707  0.9411450021736343  0.1622120654138685  1.0000
  H   H28       1.0  0.15765968929629137  0.058854997959368105  0.8377879342471932  1.0000
  H   H29       1.0  0.8709150520406055  0.3658118422235657  0.23488797266898465  1.0000
  H   H30       1.0  0.12908494875080656  0.6341881572228425  0.7651120276173837  1.0000
  C   C1        1.0  0.08668558601507528  0.1993722038353293  0.35871896315928103  1.0000
  C   C2        1.0  0.9133144137628324  0.8006277963388712  0.6412810371234537  1.0000
  C   C3        1.0  0.01060752621896829  0.05789255313068827  0.28318129812974246  1.0000
  C   C4        1.0  0.9893924731097983  0.9421074462856505  0.7168187015272705  1.0000
  C   C5        1.0  0.9187893319212067  0.19125296286721397  0.2308787048047963  1.0000
  C   C6        1.0  0.08121066785670099  0.8087470373069865  0.7691212954779384  1.0000
  C   C7        1.0  0.1700659035237793  0.25348239239460546  0.43792148501773803  1.0000
  C   C8        1.0  0.8299340974941785  0.7465176077740308  0.5620785152688379  1.0000
  C   C9        1.0  0.25174252316904716  0.21096148420479718  0.5063842885057038  1.0000
  C   C10       1.0  0.7482574763823149  0.7890385152471752  0.49361571177682323  1.0000
  C   C11       1.0  0.3264428736463664  0.2679291141044454  0.5789758209396716  1.0000
  C   C12       1.0  0.6735571259089457  0.7320708860341212  0.42102417871754877  1.0000
  C   C13       1.0  0.3160158077727325  0.36599088349546227  0.5825903840133515  1.0000
  C   C14       1.0  0.6839841917825796  0.6340091166431044  0.4174096156438689  1.0000
  C   C15       1.0  0.2309717320764374  0.40516167452309365  0.5132636606652925  1.0000
  C   C16       1.0  0.7690282674749247  0.5948383249288788  0.4867363396172347  1.0000
  C   C17       1.0  0.0027994016031805944  0.9526462895267568  0.277932939671735  1.0000
  C   C18       1.0  0.9972005979521317  0.047353710611809985  0.7220670599854854  1.0000
  C   C19       1.0  0.08320047100506255  0.9021026177156548  0.34095936973583374  1.0000
  C   C20       1.0  0.9167995300128952  0.09789738245298137  0.6590406305507421  1.0000
  C   C21       1.0  0.0607767615916554  0.8016760408692217  0.3314515804026188  1.0000
  C   C22       1.0  0.9392232381862522  0.19832395930497862  0.6685484198801158  1.0000
  C   C23       1.0  0.9575834486900542  0.7533598420185722  0.2598947280061145  1.0000
  C   C24       1.0  0.04241655108785354  0.2466401581556283  0.74010527227662  1.0000
  C   C25       1.0  0.8799068932643762  0.806892092565677  0.19858691550130927  1.0000
  C   C26       1.0  0.12009310629093593  0.19310790757288973  0.8014130841559111  1.0000
  C   C27       1.0  0.8248196547584074  0.23870014188890917  0.16232325922000895  1.0000
  C   C28       1.0  0.17518034501950028  0.7612998582852912  0.8376767410627257  1.0000
  C   C29       1.0  0.7509622075019531  0.19373209356910384  0.08456773853744022  1.0000
  C   C30       1.0  0.2490377932934091  0.8062679065638986  0.9154322611236215  1.0000
  C   C31       1.0  0.6734145308437207  0.24756215269375628  0.02246626536743954  1.0000
  C   C32       1.0  0.326585470174237  0.75243784747488  0.9775337349191364  1.0000
  C   C33       1.0  0.6655293328452797  0.34404155641056117  0.039860422364601376  1.0000
  C   C34       1.0  0.3344706669326279  0.6559584437636393  0.9601395779181332  1.0000
  C   C35       1.0  0.737139474884907  0.3854185247548699  0.11912869185906834  1.0000
  C   C36       1.0  0.262860524670405  0.6145814753836968  0.880871307798152  1.0000
  N   N1        1.0  0.9970927437641713  0.24589654182028267  0.30001283796004613  1.0000
  N   N2        1.0  0.00290725601373642  0.7541034583539177  0.6999871623226886  1.0000
  N   N3        1.0  0.10299569068212712  0.10655374990434008  0.35252141957032485  1.0000
  N   N4        1.0  0.897004308869235  0.8934462495476324  0.6474785807122023  1.0000
  N   N5        1.0  0.9184642044303456  0.09655237135501332  0.21989014150830843  1.0000
  N   N6        1.0  0.08153579534756199  0.903447628819187  0.7801098587744262  1.0000
  N   N7        1.0  0.16192242742222077  0.34866537533697406  0.4440242710082834  1.0000
  N   N8        1.0  0.8380775721330914  0.6513346248015925  0.5559757286489371  1.0000
  N   N9        1.0  0.9047015924932814  0.9034404387453069  0.20915247782467644  1.0000
  N   N10       1.0  0.09529840728462645  0.09655956142889359  0.7908475224580582  1.0000
  N   N11       1.0  0.8150611845153604  0.3327035109988448  0.17666708970873  1.0000
  N   N12       1.0  0.18493881627605177  0.6672964884475632  0.8233329105776385  1.0000
  Br  Br1       1.0  0.7847965837411629  0.04484686637024974  0.4328447635038928  1.0000
  Br  Br2       1.0  0.21520341581019914  0.9551531330817227  0.5671552367786342  1.0000
  Br  Br3       1.0  0.44295533789366526  0.8402715857645895  0.2236635264348413  1.0000
  Br  Br4       1.0  0.5570446626751512  0.15972841364618484  0.7763364732260128  1.0000
  Br  Br5       1.0  0.31906151954509376  0.0683357272451313  0.9705238026595501  1.0000
  Br  Br6       1.0  0.680938480232814  0.9316642729290691  0.02947619762318467  1.0000
  Br  Br7       1.0  0.0015710001719637008  0.39132709349696393  0.9168181102455586  1.0000
  Br  Br8       1.0  0.9984289993833485  0.6086729066416027  0.08318188941166184  1.0000
  Br  Br9       1.0  0.36205820272866185  0.22149293744958476  0.18902076453434055  1.0000
  Br  Br10      1.0  0.6379417968266503  0.778507062688982  0.8109792351228798  1.0000
  Br  Br11      1.0  0.7370460905626466  0.33614050127817185  0.4983324192951384  1.0000
  Br  Br12      1.0  0.26295390921526113  0.6638594988960286  0.5016675809875962  1.0000
  Br  Br13      1.0  0.4686162179885537  0.4078195977573797  0.8249815627756608  1.0000
  Br  Br14      1.0  0.5313837815667585  0.592180402381187  0.17501843688155963  1.0000
  Br  Br15      1.0  0.0251192076939181  0.4962028022854601  0.6741108311262173  1.0000
  Br  Br16      1.0  0.974880793101444  0.5037971978475424  0.3258891685348444  1.0000
  I   I1        1.0  0.4999999998805374  2.5105451103756853e-10  0.5000000001435126  1.0000
  I   I2        1.0  0.41313578015554314  0.019645417321887487  0.2080780303970538  1.0000
  I   I3        1.0  0.5868642196223646  0.9803545828523129  0.7919219698856809  1.0000
  I   I4        1.0  0.0  0.0  0.0  1.0000
  I   I5        1.0  0.18749564840542274  0.32613924151382556  0.04201441118787692  1.0000
  I   I6        1.0  0.812504351372485  0.6738607586603748  0.9579855890948578  1.0000
  I   I7        1.0  0.5587391469072779  0.28900171523412016  0.3471882570593068  1.0000
  I   I8        1.0  0.4412608541106798  0.710998284934516  0.6528117432272692  1.0000
  I   I9        1.0  0.7423534699952692  0.4544771569237122  0.7524967964826972  1.0000
  I   I10       1.0  0.25764652978263847  0.5455228432504882  0.2475032038000375  1.0000
