data_image0
_chemical_formula_structural       H32N8O60I24
_chemical_formula_sum              "H32 N8 O60 I24"
_cell_length_a       11.89449931321837
_cell_length_b       11.99925254849296
_cell_length_c       11.33198896128319
_cell_angle_alpha    90.0
_cell_angle_beta     90.0
_cell_angle_gamma    90.0

_space_group_name_H-M_alt    "P 1"
_space_group_IT_number       1

loop_
  _space_group_symop_operation_xyz
  'x, y, z'

loop_
  _atom_site_type_symbol
  _atom_site_label
  _atom_site_symmetry_multiplicity
  _atom_site_fract_x
  _atom_site_fract_y
  _atom_site_fract_z
  _atom_site_occupancy
  H   H1        1.0  0.1968417903390076  0.8041679605461686  0.4432909056973855  1.0000
  H   H2        1.0  0.8031582102311408  0.19583203957942585  0.9432909056407673  1.0000
  H   H3        1.0  0.1968417903390076  0.19583203957942585  0.9432909056407673  1.0000
  H   H4        1.0  0.8031582102311408  0.8041679605461686  0.4432909056973855  1.0000
  H   H5        1.0  0.696841789783357  0.304167960900064  0.4432909056973855  1.0000
  H   H6        1.0  0.3031582099460666  0.6958320392255305  0.9432909056407673  1.0000
  H   H7        1.0  0.696841789783357  0.6958320392255305  0.9432909056407673  1.0000
  H   H8        1.0  0.3031582099460666  0.304167960900064  0.4432909056973855  1.0000
  H   H9        1.0  0.19352004648417442  0.6999858304553234  0.548118890798554  1.0000
  H   H10       1.0  0.806479954085974  0.3000141696702711  0.04811889085517202  1.0000
  H   H11       1.0  0.19352004648417442  0.3000141696702711  0.04811889085517202  1.0000
  H   H12       1.0  0.806479954085974  0.6999858304553234  0.548118890798554  1.0000
  H   H13       1.0  0.6935200459285238  0.19998583080921875  0.548118890798554  1.0000
  H   H14       1.0  0.30647995380089976  0.8000141693163757  0.04811889085517202  1.0000
  H   H15       1.0  0.6935200459285238  0.8000141693163757  0.04811889085517202  1.0000
  H   H16       1.0  0.30647995380089976  0.19998583080921875  0.548118890798554  1.0000
  H   H17       1.0  0.29388943560787467  0.7986325682597264  0.5520737666948438  1.0000
  H   H18       1.0  0.7061105641215488  0.20136743186586806  0.05207376675146174  1.0000
  H   H19       1.0  0.29388943560787467  0.20136743186586806  0.05207376675146174  1.0000
  H   H20       1.0  0.7061105641215488  0.7986325682597264  0.5520737666948438  1.0000
  H   H21       1.0  0.7938894358929489  0.29863256778023656  0.5520737666948438  1.0000
  H   H22       1.0  0.2061105646771995  0.7013674315119727  0.05207376675146174  1.0000
  H   H23       1.0  0.7938894358929489  0.7013674315119727  0.05207376675146174  1.0000
  H   H24       1.0  0.2061105646771995  0.29863256778023656  0.5520737666948438  1.0000
  H   H25       1.0  0.2956262787868929  0.7051322176782305  0.4413615100657184  1.0000
  H   H26       1.0  0.7043737209425307  0.294867782447364  0.9413615100091004  1.0000
  H   H27       1.0  0.2956262787868929  0.294867782447364  0.9413615100091004  1.0000
  H   H28       1.0  0.7043737209425307  0.7051322176782305  0.4413615100657184  1.0000
  H   H29       1.0  0.795626279071967  0.2051322180321259  0.4413615100657184  1.0000
  H   H30       1.0  0.20437372065745654  0.7948677820934685  0.9413615100091004  1.0000
  H   H31       1.0  0.795626279071967  0.7948677820934685  0.9413615100091004  1.0000
  H   H32       1.0  0.20437372065745654  0.2051322180321259  0.4413615100657184  1.0000
  N   N1        1.0  0.24340685755326902  0.7515135891637318  0.4964822776674254  1.0000
  N   N2        1.0  0.7565931421761546  0.24848641012847744  0.9964822776108073  1.0000
  N   N3        1.0  0.24340685755326902  0.24848641012847744  0.9964822776108073  1.0000
  N   N4        1.0  0.7565931421761546  0.7515135891637318  0.4964822776674254  1.0000
  N   N5        1.0  0.7434068578383431  0.25151358951762715  0.4964822776674254  1.0000
  N   N6        1.0  0.2565931418910804  0.7484864106079673  0.9964822776108073  1.0000
  N   N7        1.0  0.7434068578383431  0.7484864106079673  0.9964822776108073  1.0000
  N   N8        1.0  0.2565931418910804  0.25151358951762715  0.4964822776674254  1.0000
  O   O1        1.0  0.5000000002850742  0.3246967962591413  0.07898541403967682  1.0000
  O   O2        1.0  0.5000000002850742  0.6753032038664533  0.5789854139830587  1.0000
  O   O3        1.0  0.0  0.8246967967386312  0.07898541403967682  1.0000
  O   O4        1.0  0.0  0.1753032033869634  0.5789854139830587  1.0000
  O   O5        1.0  0.6151836094410695  0.14729636807435822  0.16858244184026072  1.0000
  O   O6        1.0  0.38481639028835407  0.8527036320512362  0.6685824417836427  1.0000
  O   O7        1.0  0.6151836094410695  0.8527036320512362  0.6685824417836427  1.0000
  O   O8        1.0  0.38481639028835407  0.14729636807435822  0.16858244184026072  1.0000
  O   O9        1.0  0.11518360915599535  0.6472963677204628  0.16858244184026072  1.0000
  O   O10       1.0  0.8848163905734283  0.3527036315717464  0.6685824417836427  1.0000
  O   O11       1.0  0.11518360915599535  0.3527036315717464  0.6685824417836427  1.0000
  O   O12       1.0  0.8848163905734283  0.6472963677204628  0.16858244184026072  1.0000
  O   O13       1.0  0.5000000002850742  0.6841266592918744  0.11469754289743159  1.0000
  O   O14       1.0  0.5000000002850742  0.31587334000033473  0.6146975437232711  1.0000
  O   O15       1.0  0.0  0.18412665964576988  0.11469754289743159  1.0000
  O   O16       1.0  0.0  0.8158733404798246  0.6146975437232711  1.0000
  O   O17       1.0  0.3819558890512664  0.6489908257642311  0.3257003702183332  1.0000
  O   O18       1.0  0.6180441115188821  0.3510091743613634  0.8257003701617152  1.0000
  O   O19       1.0  0.3819558890512664  0.3510091743613634  0.8257003701617152  1.0000
  O   O20       1.0  0.6180441115188821  0.6489908257642311  0.3257003702183332  1.0000
  O   O21       1.0  0.8819558884956158  0.14899082611812642  0.3257003702183332  1.0000
  O   O22       1.0  0.11804411123380783  0.8510091740074681  0.8257003701617152  1.0000
  O   O23       1.0  0.8819558884956158  0.8510091740074681  0.8257003701617152  1.0000
  O   O24       1.0  0.11804411123380783  0.14899082611812642  0.3257003702183332  1.0000
  O   O25       1.0  0.679353607681498  0.5049431350422714  0.09513313714681965  1.0000
  O   O26       1.0  0.32064639288865043  0.4950568650833231  0.5951331370902017  1.0000
  O   O27       1.0  0.679353607681498  0.4950568650833231  0.5951331370902017  1.0000
  O   O28       1.0  0.32064639288865043  0.5049431350422714  0.09513313714681965  1.0000
  O   O29       1.0  0.17935360739642378  0.004943134562781538  0.09513313714681965  1.0000
  O   O30       1.0  0.8206463923329999  0.9950568655628129  0.5951331370902017  1.0000
  O   O31       1.0  0.17935360739642378  0.9950568655628129  0.5951331370902017  1.0000
  O   O32       1.0  0.8206463923329999  0.004943134562781538  0.09513313714681965  1.0000
  O   O33       1.0  0.8609532516109865  0.3897625082145127  0.16272584241832794  1.0000
  O   O34       1.0  0.13904674895916205  0.6102374919110817  0.6627258432441675  1.0000
  O   O35       1.0  0.8609532516109865  0.6102374919110817  0.6627258432441675  1.0000
  O   O36       1.0  0.13904674895916205  0.3897625082145127  0.16272584241832794  1.0000
  O   O37       1.0  0.36095325132591216  0.8897625078606173  0.16272584241832794  1.0000
  O   O38       1.0  0.6390467484035115  0.11023749226497714  0.6627258432441675  1.0000
  O   O39       1.0  0.36095325132591216  0.11023749226497714  0.6627258432441675  1.0000
  O   O40       1.0  0.6390467484035115  0.8897625078606173  0.16272584241832794  1.0000
  O   O41       1.0  0.6611789771815189  0.3745601471288707  0.3004530159385596  1.0000
  O   O42       1.0  0.33882102254790486  0.6254398529967238  0.8004530158819415  1.0000
  O   O43       1.0  0.6611789771815189  0.6254398529967238  0.8004530158819415  1.0000
  O   O44       1.0  0.33882102254790486  0.3745601471288707  0.3004530159385596  1.0000
  O   O45       1.0  0.16117897689644461  0.8745601476083605  0.3004530159385596  1.0000
  O   O46       1.0  0.838821022832979  0.1254398525172339  0.8004530158819415  1.0000
  O   O47       1.0  0.16117897689644461  0.1254398525172339  0.8004530158819415  1.0000
  O   O48       1.0  0.838821022832979  0.8745601476083605  0.3004530159385596  1.0000
  O   O49       1.0  0.5000000002850742  0.1409515487039582  0.4117447048299678  1.0000
  O   O50       1.0  0.5000000002850742  0.8590484514216362  0.9117447047733498  1.0000
  O   O51       1.0  0.0  0.6409515483500628  0.4117447048299678  1.0000
  O   O52       1.0  0.0  0.3590484509421464  0.9117447047733498  1.0000
  O   O53       1.0  0.3827378236039603  0.934587539072045  0.4106377941152771  1.0000
  O   O54       1.0  0.6172621761254633  0.06541246105354948  0.9106377949411167  1.0000
  O   O55       1.0  0.3827378236039603  0.06541246105354948  0.9106377949411167  1.0000
  O   O56       1.0  0.6172621761254633  0.934587539072045  0.4106377941152771  1.0000
  O   O57       1.0  0.8827378238890344  0.4345875394259404  0.4106377941152771  1.0000
  O   O58       1.0  0.11726217668111386  0.5654124606996541  0.9106377949411167  1.0000
  O   O59       1.0  0.8827378238890344  0.5654124606996541  0.9106377949411167  1.0000
  O   O60       1.0  0.11726217668111386  0.4345875394259404  0.4106377941152771  1.0000
  I   I1        1.0  0.5000000002850742  0.5018099882193285  0.10047607475528904  1.0000
  I   I2        1.0  0.5000000002850742  0.49819001190626594  0.600476074698671  1.0000
  I   I3        1.0  0.0  0.0018099885732238985  0.10047607475528904  1.0000
  I   I4        1.0  0.0  0.9981900115523706  0.600476074698671  1.0000
  I   I5        1.0  0.5000000002850742  0.23483618488835853  0.22094710721607366  1.0000
  I   I6        1.0  0.5000000002850742  0.765163815237236  0.7209471071594556  1.0000
  I   I7        1.0  0.0  0.7348361845344631  0.22094710721607366  1.0000
  I   I8        1.0  0.0  0.26516381559113134  0.7209471071594556  1.0000
  I   I9        1.0  0.5000000002850742  0.733020637281669  0.27393513006462455  1.0000
  I   I10       1.0  0.5000000002850742  0.26697936284392554  0.7739351300080064  1.0000
  I   I11       1.0  0.0  0.2330206368021791  0.27393513006462455  1.0000
  I   I12       1.0  0.0  0.7669793633234153  0.7739351300080064  1.0000
  I   I13       1.0  0.7586321636903304  0.47752996337423176  0.2408546142539604  1.0000
  I   I14       1.0  0.24136783603909334  0.5224700359179775  0.7408546150797999  1.0000
  I   I15       1.0  0.7586321636903304  0.5224700359179775  0.7408546150797999  1.0000
  I   I16       1.0  0.24136783603909334  0.47752996337423176  0.2408546142539604  1.0000
  I   I17       1.0  0.25863216340525613  0.9775299638537216  0.2408546142539604  1.0000
  I   I18       1.0  0.7413678363241676  0.022470036271872888  0.7408546150797999  1.0000
  I   I19       1.0  0.25863216340525613  0.022470036271872888  0.7408546150797999  1.0000
  I   I20       1.0  0.7413678363241676  0.9775299638537216  0.2408546142539604  1.0000
  I   I21       1.0  0.5000000002850742  0.004694366567613796  0.485974891858384  1.0000
  I   I22       1.0  0.5000000002850742  0.9953056335579806  0.985974891801766  1.0000
  I   I23       1.0  0.0  0.5046943662137184  0.485974891858384  1.0000
  I   I24       1.0  0.0  0.49530563391187604  0.985974891801766  1.0000
