data_image0
_chemical_formula_structural       H108C120N12
_chemical_formula_sum              "H108 C120 N12"
_cell_length_a       14.852176274692377
_cell_length_b       5.65552544663382
_cell_length_c       27.19999182662019
_cell_angle_alpha    90.0
_cell_angle_beta     104.99997253207339
_cell_angle_gamma    90.0

_space_group_name_H-M_alt    "P 1"
_space_group_IT_number       1

loop_
  _space_group_symop_operation_xyz
  'x, y, z'

loop_
  _atom_site_type_symbol
  _atom_site_label
  _atom_site_symmetry_multiplicity
  _atom_site_fract_x
  _atom_site_fract_y
  _atom_site_fract_z
  _atom_site_occupancy
  H   H1        1.0  0.05828901083497366  0.9574463665834865  0.984684286798842  1.0000
  H   H2        1.0  0.44171098935504444  0.4574463671699765  0.5153157131663144  1.0000
  H   H3        1.0  0.941710989434568  0.0425536340117156  0.015315713441388904  1.0000
  H   H4        1.0  0.558289010911766  0.5425536334252254  0.484684286705886  1.0000
  H   H5        1.0  0.15808087113771233  0.7843093540742756  0.9973352588246609  1.0000
  H   H6        1.0  0.34191912905230576  0.2843093546607657  0.5026647411404953  1.0000
  H   H7        1.0  0.841919129129098  0.21569064652092648  0.0026647410475394077  1.0000
  H   H8        1.0  0.6580808712172358  0.7156906459344362  0.49733525909973547  1.0000
  H   H9        1.0  0.1774577619189867  0.3606008229021138  0.006018203221246074  1.0000
  H   H10       1.0  0.32254223786726005  0.8606008240838058  0.4939817968503347  1.0000
  H   H11       1.0  0.8225422376535069  0.6393991759249059  0.9939817969219155  1.0000
  H   H12       1.0  0.6774577623995502  0.13939917651139608  0.5060182030218657  1.0000
  H   H13       1.0  0.23553754415984793  0.25408778787394637  0.06621788811122083  1.0000
  H   H14       1.0  0.2644624556263988  0.7540877890556384  0.4337821119603599  1.0000
  H   H15       1.0  0.7644624554099143  0.7459122109530734  0.9337821116639105  1.0000
  H   H16       1.0  0.7355375446431428  0.24591221153956344  0.5662178882798709  1.0000
  H   H17       1.0  0.2579612262612072  0.8105090770528349  0.10609555682413552  1.0000
  H   H18       1.0  0.24203877352503952  0.31050907763932517  0.3939044432474453  1.0000
  H   H19       1.0  0.7420387733085549  0.18949092177418464  0.8939044429509956  1.0000
  H   H20       1.0  0.757961226744502  0.6894909229558768  0.6060955569927855  1.0000
  H   H21       1.0  0.3898822744700796  0.08172575729017427  0.10849610561682978  1.0000
  H   H22       1.0  0.11011772601048402  0.5817257567036841  0.39150389418378995  1.0000
  H   H23       1.0  0.6101177257967308  0.9182742433050277  0.8915038942553707  1.0000
  H   H24       1.0  0.8898822742563264  0.4182742438915179  0.6084961056884105  1.0000
  H   H25       1.0  0.4923462353452692  0.017971932220815445  0.05006379304150181  1.0000
  H   H26       1.0  0.007653764440977548  0.5179719316343253  0.4499362070300789  1.0000
  H   H27       1.0  0.5076537649242724  0.9820280683743865  0.9499362071987288  1.0000
  H   H28       1.0  0.9923462351287848  0.4820280671926944  0.5500637927450522  1.0000
  H   H29       1.0  0.461868239640045  0.6779468267236055  0.9897584679371204  1.0000
  H   H30       1.0  0.03813175985292501  0.17794682554191335  0.5102415319309668  1.0000
  H   H31       1.0  0.5381317599324487  0.3220531738715965  0.01024153220604124  1.0000
  H   H32       1.0  0.9618682397168373  0.8220531732851063  0.4897584678441644  1.0000
  H   H33       1.0  0.3300983603258866  0.4055136205540427  0.9876902094467556  1.0000
  H   H34       1.0  0.1699016398641315  0.9055136199675525  0.5123097905184009  1.0000
  H   H35       1.0  0.6699016399409239  0.5944863800411593  0.012309790425444911  1.0000
  H   H36       1.0  0.8300983597056307  0.0944863806276494  0.4876902092567304  1.0000
  H   H37       1.0  0.04383893123537157  0.01233978357245973  0.1433303011979332  1.0000
  H   H38       1.0  0.456161068548144  0.5123397829859696  0.35666969850561725  1.0000
  H   H39       1.0  0.9561610690314388  0.9876602170227422  0.8566696986742672  1.0000
  H   H40       1.0  0.5438389310216183  0.4876602158410501  0.643330301269514  1.0000
  H   H41       1.0  0.13820591215704303  0.7173575308399955  0.20255570005984952  1.0000
  H   H42       1.0  0.36179408762647247  0.21735753142648567  0.2974442996437009  1.0000
  H   H43       1.0  0.8617940874127191  0.28264246975520646  0.7974442997152817  1.0000
  H   H44       1.0  0.6382059119432898  0.7826424691687164  0.7025557001314302  1.0000
  H   H45       1.0  0.30875406807627714  0.7788795544403126  0.23709013555346645  1.0000
  H   H46       1.0  0.19124593170996962  0.2788795550268028  0.26290986451811427  1.0000
  H   H47       1.0  0.6912459314934851  0.22112044615488932  0.7629098642216648  1.0000
  H   H48       1.0  0.8087540685595719  0.7211204455683992  0.7370901357221166  1.0000
  H   H49       1.0  0.3845071808228261  0.1376187336338924  0.21088604744856612  1.0000
  H   H50       1.0  0.11549281966046876  0.6376187330474022  0.2891139527200839  1.0000
  H   H51       1.0  0.6154928194467154  0.8623812669613096  0.7891139527916647  1.0000
  H   H52       1.0  0.8845071806090727  0.36238126577961743  0.7108860475201468  1.0000
  H   H53       1.0  0.29043996062597593  0.4247223149583195  0.15122350307385443  1.0000
  H   H54       1.0  0.20956003916027083  0.9247223161400118  0.34877649699772634  1.0000
  H   H55       1.0  0.7095600389437863  0.5752776838687002  0.8487764967012768  1.0000
  H   H56       1.0  0.7904399611092708  0.07527768445519031  0.6512235032425044  1.0000
  H   H57       1.0  0.8594199057028772  0.025437666465744177  0.06882396572027454  1.0000
  H   H58       1.0  0.6405800946407256  0.525437665879254  0.43117603405897004  1.0000
  H   H59       1.0  0.14058009456393325  0.9745623341294578  0.9311760341519258  1.0000
  H   H60       1.0  0.3594199056260848  0.47456233471594794  0.5688239658132304  1.0000
  H   H61       1.0  0.7003047885083611  0.08051292038143353  0.07949967784821058  1.0000
  H   H62       1.0  0.7996952111409248  0.5805129197949433  0.42050032220199507  1.0000
  H   H63       1.0  0.2996952117611806  0.9194870802137685  0.9205003223920202  1.0000
  H   H64       1.0  0.20030478843156874  0.4194870790320763  0.5794996779411664  1.0000
  H   H65       1.0  0.6250283090595691  0.7552230045295291  0.1175317323949454  1.0000
  H   H66       1.0  0.8749716905897169  0.25522300511601914  0.3824682676552602  1.0000
  H   H67       1.0  0.37497169051019325  0.24477699429749067  0.8824682673801858  1.0000
  H   H68       1.0  0.12502830898277675  0.7447769954791827  0.6175317324879013  1.0000
  H   H69       1.0  0.7114295759269484  0.3832868829703901  0.14434758736611472  1.0000
  H   H70       1.0  0.7885704237196061  0.8832868823839  0.3556524123160606  1.0000
  H   H71       1.0  0.2885704236428138  0.616713117624812  0.8556524124090165  1.0000
  H   H72       1.0  0.21142957585015615  0.11671311644311978  0.6443475874590705  1.0000
  H   H73       1.0  0.8710735393034713  0.3287204535710351  0.13162105820304373  1.0000
  H   H74       1.0  0.6289264610428627  0.828720452984545  0.36837894194423115  1.0000
  H   H75       1.0  0.12892646096333907  0.6712795470241669  0.8683789416691567  1.0000
  H   H76       1.0  0.37107353922667896  0.17127954761065706  0.6316210582959996  1.0000
  H   H77       1.0  0.6963134952260108  0.996233259520298  0.2759912779712536  1.0000
  H   H78       1.0  0.8036865051203232  0.49623326010678825  0.2240087221760213  1.0000
  H   H79       1.0  0.3036865050435309  0.003766739306721628  0.7240087222689772  1.0000
  H   H80       1.0  0.19631349514921845  0.5037667404884139  0.7759912780642094  1.0000
  H   H81       1.0  0.7308000227518564  0.04744483824393503  0.21914179543303192  1.0000
  H   H82       1.0  0.7691999768974295  0.5474448376574449  0.2808582046171737  1.0000
  H   H83       1.0  0.2691999768206372  0.952555162351267  0.7808582047101295  1.0000
  H   H84       1.0  0.2308000233693809  0.4525551611695748  0.7191417952550266  1.0000
  H   H85       1.0  0.6391229251444522  0.8474797461750914  0.21896012047917246  1.0000
  H   H86       1.0  0.8608770745048338  0.34747974499339923  0.28103987957103316  1.0000
  H   H87       1.0  0.36087707442804134  0.1525202544201106  0.781039879663989  1.0000
  H   H88       1.0  0.13912292576197674  0.6525202538336204  0.7189601203011673  1.0000
  H   H89       1.0  0.6101288479683608  0.31225842526287595  0.29920586278860517  1.0000
  H   H90       1.0  0.8898711516809252  0.8122584246763859  0.20079413726160047  1.0000
  H   H91       1.0  0.3898711522984497  0.6877415753323259  0.7007941370835953  1.0000
  H   H92       1.0  0.11012884789156839  0.18774157415063386  0.799205862881561  1.0000
  H   H93       1.0  0.49945142612232163  0.648996558256959  0.2761226732023224  1.0000
  H   H94       1.0  0.0005485736639251474  0.14899655884344915  0.22387732686925835  1.0000
  H   H95       1.0  0.5005485741444887  0.3510034405700607  0.723877326669878  1.0000
  H   H96       1.0  0.9994514259085684  0.8510034417517529  0.7761226732739032  1.0000
  H   H97       1.0  0.4284125306563242  0.7448956316706971  0.18482875842207455  1.0000
  H   H98       1.0  0.07158746982697066  0.24489563225718713  0.31517124174657546  1.0000
  H   H99       1.0  0.5715874696104862  0.25510436892450505  0.8151712414501259  1.0000
  H   H100      1.0  0.928412530442571  0.7551043683380149  0.6848287584936553  1.0000
  H   H101      1.0  0.4659564582722747  0.49873751194574506  0.117182347513437  1.0000
  H   H102      1.0  0.034043541513972035  0.9987375131274373  0.38281765255814376  1.0000
  H   H103      1.0  0.5340435419945356  0.5012624868812746  0.8828176523587634  1.0000
  H   H104      1.0  0.9659564580585215  0.0012624874677647786  0.6171823475850178  1.0000
  H   H105      1.0  0.5754072748484577  0.15944418224423654  0.1406229764314673  1.0000
  H   H106      1.0  0.9245927254978764  0.6594441834259286  0.3593770237158076  1.0000
  H   H107      1.0  0.424592725421084  0.8405558165827831  0.8593770238087636  1.0000
  H   H108      1.0  0.07540727476893408  0.3405558171692733  0.6406229761563929  1.0000
  C   C1        1.0  0.06997118159546005  0.690794152880231  0.03968274048453599  1.0000
  C   C2        1.0  0.4300288181907867  0.1907941534667212  0.4603172595870447  1.0000
  C   C3        1.0  0.9300288186740816  0.3092058459467887  0.9603172597556947  1.0000
  C   C4        1.0  0.5699711813789755  0.8092058471284808  0.5396827401880864  1.0000
  C   C5        1.0  0.12800927598555306  0.5050181326122372  0.0657924264408137  1.0000
  C   C6        1.0  0.37199072379796244  0.005018133198727262  0.4342075732627367  1.0000
  C   C7        1.0  0.8719907242812573  0.4949818662147826  0.9342075734313867  1.0000
  C   C8        1.0  0.6280092757717998  0.9949818673964747  0.5657924265123945  1.0000
  C   C9        1.0  0.2068378407161648  0.4159634205872431  0.04579886389043317  1.0000
  C   C10       1.0  0.293162159070082  0.9159634217689353  0.4542011361811476  1.0000
  C   C11       1.0  0.7931621588563288  0.5840365782397765  0.9542011362527284  1.0000
  C   C12       1.0  0.7068378411994597  0.08403657882626667  0.5457988640590832  1.0000
  C   C13       1.0  0.28567079921194627  0.5875655412315139  0.047186795526319866  1.0000
  C   C14       1.0  0.21432920057430052  0.08756554181800409  0.45281320454526086  1.0000
  C   C15       1.0  0.7143292003578161  0.41243445759550573  0.9528132042488113  1.0000
  C   C16       1.0  0.7856707996952411  0.9124344587771979  0.5471867956949699  1.0000
  C   C17       1.0  0.3029198100463874  0.7804740252078993  0.08066250791582115  1.0000
  C   C18       1.0  0.19708019043417618  0.28047402579438946  0.4193374918847985  1.0000
  C   C19       1.0  0.697080190220423  0.2195259753873027  0.9193374919563794  1.0000
  C   C20       1.0  0.8029198098326342  0.7195259748008125  0.5806625079874019  1.0000
  C   C21       1.0  0.3768915680762097  0.9345057802092844  0.08175934512264466  1.0000
  C   C22       1.0  0.12310843240708513  0.4345057790275923  0.4182406550460054  1.0000
  C   C23       1.0  0.6231084321933319  0.06549422038591751  0.9182406551175861  1.0000
  C   C24       1.0  0.8768915678624564  0.5654942197994274  0.5817593451942255  1.0000
  C   C25       1.0  0.43446975291269063  0.8983270039079977  0.0492514228580736  1.0000
  C   C26       1.0  0.06553024687082491  0.3983270044944878  0.4507485768454768  1.0000
  C   C27       1.0  0.5655302473541197  0.10167299668720431  0.9507485770141268  1.0000
  C   C28       1.0  0.9344697526989374  0.6016729961007141  0.5492514229296543  1.0000
  C   C29       1.0  0.4174477773534482  0.7075010143189393  0.015430477901646637  1.0000
  C   C30       1.0  0.08255222312984667  0.20750101490542947  0.4845695222670034  1.0000
  C   C31       1.0  0.5825522229133622  0.29249898627626264  0.9845695219705538  1.0000
  C   C32       1.0  0.917447777139695  0.7924989856897725  0.5154304779732274  1.0000
  C   C33       1.0  0.3435749515253797  0.5534777342153249  0.014346877313607736  1.0000
  C   C34       1.0  0.15642504826086706  0.05347773303363274  0.485653122757973  1.0000
  C   C35       1.0  0.6564250480471138  0.44652226637987713  0.9856531228295536  1.0000
  C   C36       1.0  0.8435749520059433  0.9465222657933869  0.5143468771142274  1.0000
  C   C37       1.0  0.10183241825645882  0.40644223099874077  0.10698946645486053  1.0000
  C   C38       1.0  0.39816758152978793  0.9064422304122506  0.3930105336167202  1.0000
  C   C39       1.0  0.8981675813160348  0.5935577695964611  0.8930105336883009  1.0000
  C   C40       1.0  0.6018324187397537  0.09355776841476901  0.6069894666235105  1.0000
  C   C41       1.0  0.16057347876898478  0.23425553337197808  0.14222625202717495  1.0000
  C   C42       1.0  0.339426521017262  0.7342555345536702  0.35777374804440576  1.0000
  C   C43       1.0  0.8394265208035088  0.7657444654550416  0.8577737481159865  1.0000
  C   C44       1.0  0.6605734785552315  0.26574446604153174  0.6422262520987556  1.0000
  C   C45       1.0  0.11865548460473922  0.036011981896611006  0.1580027050323132  1.0000
  C   C46       1.0  0.3813445151815075  0.5360119813101208  0.3419972950392675  1.0000
  C   C47       1.0  0.8813445149677543  0.9639880186985911  0.8419972951108482  1.0000
  C   C48       1.0  0.6186554850880341  0.4639880192850811  0.6580027052009633  1.0000
  C   C49       1.0  0.1718682628383089  0.8716801589026945  0.19130463499623063  1.0000
  C   C50       1.0  0.32813173764225473  0.37168015948918454  0.3086953648043891  1.0000
  C   C51       1.0  0.8281317374285015  0.12831983992432527  0.8086953648759697  1.0000
  C   C52       1.0  0.6718682626245557  0.6283198411060174  0.6913046350678114  1.0000
  C   C53       1.0  0.2677851127699569  0.9060962059767732  0.21037004286870498  1.0000
  C   C54       1.0  0.23221488701628984  0.40609620656326334  0.2896299572028757  1.0000
  C   C55       1.0  0.7322148874995847  0.09390379285024648  0.7896299573715257  1.0000
  C   C56       1.0  0.7677851125562036  0.5939037940319386  0.7103700429402858  1.0000
  C   C57       1.0  0.31008375461095483  0.10499594168627341  0.19553836573358283  1.0000
  C   C58       1.0  0.18991624517529196  0.6049959410997833  0.30446163433799794  1.0000
  C   C59       1.0  0.6899162456585868  0.8950040589089286  0.804461634506648  1.0000
  C   C60       1.0  0.8100837543944704  0.3950040594954187  0.6955383654371332  1.0000
  C   C61       1.0  0.2569218847880555  0.26783959939594937  0.1616131197580316  1.0000
  C   C62       1.0  0.24307811499819132  0.7678395988094593  0.33838688031354913  1.0000
  C   C63       1.0  0.7430781147844381  0.7321604011992527  0.8383868803851299  1.0000
  C   C64       1.0  0.7569218852713504  0.23216040178574276  0.6616131199266817  1.0000
  C   C65       1.0  0.9668339345104657  0.6254410688056133  0.08825709470343994  1.0000
  C   C66       1.0  0.5331660658358681  0.12544106762392118  0.41174290544383496  1.0000
  C   C67       1.0  0.03316606575907587  0.37455893178958866  0.9117429055367908  1.0000
  C   C68       1.0  0.46683393443367344  0.8745589312030985  0.5882570947963958  1.0000
  C   C69       1.0  0.873921922471147  0.6692455627182795  0.09745230921897682  1.0000
  C   C70       1.0  0.626078077178139  0.16924556153658737  0.40254769083122877  1.0000
  C   C71       1.0  0.12607807710134658  0.3307544378769225  0.9025476909241847  1.0000
  C   C72       1.0  0.3739219223943546  0.8307544372904323  0.5974523093119327  1.0000
  C   C73       1.0  0.8255603109286793  0.8823340690598599  0.0837908840754359  1.0000
  C   C74       1.0  0.6744396887206064  0.3823340678781677  0.4162091159747698  1.0000
  C   C75       1.0  0.17443968864381418  0.11766593153534208  0.9162091160677257  1.0000
  C   C76       1.0  0.3255603108518871  0.6176659309488519  0.5837908841683918  1.0000
  C   C77       1.0  0.7365244945452016  0.91380580438835  0.0908274518250929  1.0000
  C   C78       1.0  0.7634755058011323  0.4138058049748401  0.40917254832218203  1.0000
  C   C79       1.0  0.26347550572160877  0.08619419620685205  0.9091725480471076  1.0000
  C   C80       1.0  0.23652449446840929  0.5861941956203618  0.5908274519180488  1.0000
  C   C81       1.0  0.6946908634507114  0.7330249928355452  0.11206811527618923  1.0000
  C   C82       1.0  0.8053091368956226  0.23302499342203545  0.3879318848710857  1.0000
  C   C83       1.0  0.305309136816099  0.2669750077596567  0.8879318845960111  1.0000
  C   C84       1.0  0.19469086337391905  0.7669750071731665  0.6120681153691452  1.0000
  C   C85       1.0  0.7432810212945569  0.5224817000441165  0.12688086881412816  1.0000
  C   C86       1.0  0.7567189783547289  0.022481698862424435  0.37311913123607743  1.0000
  C   C87       1.0  0.2567189782779366  0.4775183005510854  0.8731191313290333  1.0000
  C   C88       1.0  0.2432810219120815  0.9775182999645953  0.626880868636123  1.0000
  C   C89       1.0  0.8320352765876912  0.4908083724832587  0.11978608880828888  1.0000
  C   C90       1.0  0.6679647230615947  0.9908083718967686  0.3802139112419168  1.0000
  C   C91       1.0  0.16796472298480244  0.5091916281119433  0.8802139113348727  1.0000
  C   C92       1.0  0.3320352765081676  0.009191626930251134  0.6197860885332145  1.0000
  C   C93       1.0  0.6704713171422184  0.01605406975120957  0.23470433949233377  1.0000
  C   C94       1.0  0.8295286825070675  0.5160540691647194  0.26529566055787185  1.0000
  C   C95       1.0  0.3295286824275439  0.9839459308439925  0.7652956602827974  1.0000
  C   C96       1.0  0.1704713170654261  0.48394592966230027  0.7347043395852897  1.0000
  C   C97       1.0  0.6014070855619544  0.21445044699107116  0.2214926165939664  1.0000
  C   C98       1.0  0.8985929140873313  0.7144504481727634  0.2785073834562392  1.0000
  C   C99       1.0  0.39859291400780783  0.7855495518359485  0.7785073831811647  1.0000
  C   C100      1.0  0.10140708548516218  0.2855495524224387  0.7214926166869223  1.0000
  C   C101      1.0  0.5783921417557476  0.35311030758223055  0.2592516720554618  1.0000
  C   C102      1.0  0.9216078585878551  0.8531103087639227  0.24074832772378274  1.0000
  C   C103      1.0  0.4216078585110628  0.6468896912447891  0.7407483278167385  1.0000
  C   C104      1.0  0.07839214167895531  0.1468896918312793  0.7592516721484178  1.0000
  C   C105      1.0  0.516077889723967  0.5420933755721643  0.24624649565955145  1.0000
  C   C106      1.0  0.9839221106196356  0.04209337439047222  0.25375350411969305  1.0000
  C   C107      1.0  0.48392211054284345  0.45790662502303764  0.753753504212649  1.0000
  C   C108      1.0  0.01607788964717461  0.9579066244365475  0.7462464957525073  1.0000
  C   C109      1.0  0.47596188702670644  0.5958243565159188  0.1951512965711722  1.0000
  C   C110      1.0  0.024038112756809064  0.09582435533422663  0.3048487031323782  1.0000
  C   C111      1.0  0.5240381125430559  0.4041756440792832  0.8048487032039591  1.0000
  C   C112      1.0  0.9759618875100013  0.904175643492793  0.6951512967398222  1.0000
  C   C113      1.0  0.4974776022223019  0.45768468631692727  0.15711954245406817  1.0000
  C   C114      1.0  0.0025223975639448665  0.9576846857304371  0.34288045761751257  1.0000
  C   C115      1.0  0.5025223973474604  0.5423153142782747  0.842880457321063  1.0000
  C   C116      1.0  0.9974776027055968  0.04231531486476486  0.6571195426227182  1.0000
  C   C117      1.0  0.559155268380855  0.2682815158939978  0.17036037493606374  1.0000
  C   C118      1.0  0.9408447319627476  0.7682815153075075  0.32963962484318077  1.0000
  C   C119      1.0  0.4408447318859554  0.7317184847012043  0.8296396249361366  1.0000
  C   C120      1.0  0.05915526830406267  0.23171848351951208  0.6703603750290196  1.0000
  N   N1        1.0  0.09249917214360764  0.8064758408460072  0.0010330459128381519  1.0000
  N   N2        1.0  0.4075008283396872  0.3064758414324973  0.4989669542558119  1.0000
  N   N3        1.0  0.9075008281232028  0.19352415974919487  0.9989669539593623  1.0000
  N   N4        1.0  0.5924991719298544  0.6935241591627047  0.5010330459844189  1.0000
  N   N5        1.0  0.019432579463659245  0.4602623530850393  0.11710308617716259  1.0000
  N   N6        1.0  0.4805674203198562  0.9602623542667316  0.3828969135263878  1.0000
  N   N7        1.0  0.9805674208031511  0.5397376457419804  0.8828969136950378  1.0000
  N   N8        1.0  0.5194325792499059  0.039737646328470516  0.6171030862487432  1.0000
  N   N9        1.0  0.9902485744596767  0.7524437048608562  0.051479558837058105  1.0000
  N   N10       1.0  0.5097514251896093  0.252443703679164  0.44852044121314755  1.0000
  N   N11       1.0  0.00975142511281689  0.2475562957343458  0.9485204413061035  1.0000
  N   N12       1.0  0.4902485743801532  0.7475562951478557  0.5514795585619837  1.0000
