data_image0
_chemical_formula_structural       H34C34N10O6S2I8
_chemical_formula_sum              "H34 C34 N10 O6 S2 I8"
_cell_length_a       9.193074008182274
_cell_length_b       6.779507094138756
_cell_length_c       19.86810262079952
_cell_angle_alpha    90.0
_cell_angle_beta     99.39766336074302
_cell_angle_gamma    90.0

_space_group_name_H-M_alt    "P 1"
_space_group_IT_number       1

loop_
  _space_group_symop_operation_xyz
  'x, y, z'

loop_
  _atom_site_type_symbol
  _atom_site_label
  _atom_site_symmetry_multiplicity
  _atom_site_fract_x
  _atom_site_fract_y
  _atom_site_fract_z
  _atom_site_occupancy
  H   H1        1.0  0.05516887617592504  0.24999999947862156  0.2532036792575432  1.0000
  H   H2        1.0  0.9448311240286494  0.749999999910898  0.746796320769808  1.0000
  H   H3        1.0  0.3277783668468553  0.24999999947862156  0.09559437572981701  1.0000
  H   H4        1.0  0.6722216333577193  0.749999999910898  0.9044056242975341  1.0000
  H   H5        1.0  0.16345256290707222  0.24999999947862156  0.3730235203476792  1.0000
  H   H6        1.0  0.8365474372975024  0.749999999910898  0.626976479679672  1.0000
  H   H7        1.0  0.41909171723500455  0.24999999947862156  0.7061316078183242  1.0000
  H   H8        1.0  0.5809082818826177  0.749999999910898  0.29386839221132793  1.0000
  H   H9        1.0  0.48466906559968004  0.24999999947862156  0.8278620701482915  1.0000
  H   H10       1.0  0.5153309346048945  0.749999999910898  0.1721379298790596  1.0000
  H   H11       1.0  0.9400543752406725  0.24999999947862156  0.926047678710973  1.0000
  H   H12       1.0  0.05994562496390219  0.749999999910898  0.07395232131637823  1.0000
  H   H13       1.0  0.521211400517886  0.24999999947862156  0.36159036806812433  1.0000
  H   H14       1.0  0.47878859968668863  0.749999999910898  0.6384096319592268  1.0000
  H   H15       1.0  0.7469303689938697  0.24999999947862156  0.6591411027664446  1.0000
  H   H16       1.0  0.25306963121070486  0.749999999910898  0.3408588972609066  1.0000
  H   H17       1.0  0.716274723953737  0.24999999947862156  0.5467660986433271  1.0000
  H   H18       1.0  0.2837252762508375  0.749999999910898  0.45323390138402403  1.0000
  H   H19       1.0  0.6422777774890428  0.24999999947862156  0.46031173421083815  1.0000
  H   H20       1.0  0.3577222227155317  0.749999999910898  0.5396882658165131  1.0000
  H   H21       1.0  0.26578852337754016  0.24999999947862156  0.48681880321006177  1.0000
  H   H22       1.0  0.7342114768270346  0.749999999910898  0.5131811968172895  1.0000
  H   H23       1.0  0.08191602022241061  0.446319571317506  0.6647353736641416  1.0000
  H   H24       1.0  0.918083979982164  0.946319570274749  0.3352646263632096  1.0000
  H   H25       1.0  0.918083979982164  0.5536804295470472  0.3352646263632096  1.0000
  H   H26       1.0  0.08191602022241061  0.05368042911477062  0.6647353736641416  1.0000
  H   H27       1.0  0.23579972575330413  0.43320646607761926  0.6182222687832437  1.0000
  H   H28       1.0  0.7642002733643182  0.9332064665098958  0.38177773124640846  1.0000
  H   H29       1.0  0.7642002733643182  0.5667935333119004  0.38177773124640846  1.0000
  H   H30       1.0  0.23579972575330413  0.06679353435465732  0.6182222687832437  1.0000
  H   H31       1.0  0.07593289478502571  0.5852074339490025  0.586622359494192  1.0000
  H   H32       1.0  0.9240671054195488  0.08520743351672595  0.41337764053315923  1.0000
  H   H33       1.0  0.9240671054195488  0.4147925669155506  0.41337764053315923  1.0000
  H   H34       1.0  0.07593289478502571  0.9147925658727938  0.586622359494192  1.0000
  C   C1        1.0  0.1639155825979727  0.24999999947862156  0.23797386346895136  1.0000
  C   C2        1.0  0.8360844174216631  0.749999999910898  0.7620261360482387  1.0000
  C   C3        1.0  0.17790727916351654  0.24999999947862156  0.16934549422417455  1.0000
  C   C4        1.0  0.8220927210410581  0.749999999910898  0.8306545058031767  1.0000
  C   C5        1.0  0.31704066057195923  0.24999999947862156  0.1494052220527319  1.0000
  C   C6        1.0  0.6829593396326153  0.749999999910898  0.8505947779746192  1.0000
  C   C7        1.0  0.4426059620819566  0.24999999947862156  0.19921727762315072  1.0000
  C   C8        1.0  0.5573940370356656  0.749999999910898  0.8007827224065014  1.0000
  C   C9        1.0  0.4326209576537298  0.24999999947862156  0.268904770043842  1.0000
  C   C10       1.0  0.5673790414638924  0.749999999910898  0.7310952299858101  1.0000
  C   C11       1.0  0.29055551530585116  0.24999999947862156  0.2887910748440062  1.0000
  C   C12       1.0  0.7094444848987234  0.749999999910898  0.711208925183345  1.0000
  C   C13       1.0  0.2748376714760022  0.24999999947862156  0.3599588621385234  1.0000
  C   C14       1.0  0.7251623287285724  0.749999999910898  0.6400411378888278  1.0000
  C   C15       1.0  0.48978284605198125  0.24999999947862156  0.5251731797326711  1.0000
  C   C16       1.0  0.5102171530656409  0.749999999910898  0.47482682029698103  1.0000
  C   C17       1.0  0.5355315475093678  0.24999999947862156  0.7000712005351554  1.0000
  C   C18       1.0  0.46446845269520676  0.749999999910898  0.29992879949219575  1.0000
  C   C19       1.0  0.6459331270710422  0.24999999947862156  0.7603843325383153  1.0000
  C   C20       1.0  0.35406687313353236  0.749999999910898  0.23961566748903596  1.0000
  C   C21       1.0  0.6020171714017223  0.24999999947862156  0.8249364557402764  1.0000
  C   C22       1.0  0.3979828277158999  0.749999999910898  0.17506354428937562  1.0000
  C   C23       1.0  0.7069133631394189  0.24999999947862156  0.8836379419321204  1.0000
  C   C24       1.0  0.2930866368802169  0.749999999910898  0.11636205758506957  1.0000
  C   C25       1.0  0.8577349404035703  0.24999999947862156  0.879981851393962  1.0000
  C   C26       1.0  0.14226505980100423  0.749999999910898  0.12001814863338917  1.0000
  C   C27       1.0  0.9016950870582807  0.24999999947862156  0.816053531534176  1.0000
  C   C28       1.0  0.0983049131462938  0.749999999910898  0.18394646849317517  1.0000
  C   C29       1.0  0.7987047075493952  0.24999999947862156  0.7556582725513941  1.0000
  C   C30       1.0  0.20129529265517948  0.749999999910898  0.24434172747595706  1.0000
  C   C31       1.0  0.11599172093925565  0.45076970900171653  0.6142877393881044  1.0000
  C   C32       1.0  0.8840082792653189  0.9507697079589598  0.38571226063924674  1.0000
  C   C33       1.0  0.8840082792653189  0.5492302918628366  0.38571226063924674  1.0000
  C   C34       1.0  0.11599172093925565  0.049230291430560014  0.6142877393881044  1.0000
  N   N1        1.0  0.39063324397241567  0.24999999947862156  0.4078434732171028  1.0000
  N   N2        1.0  0.609366756232159  0.749999999910898  0.5921565268102483  1.0000
  N   N3        1.0  0.45316844470053536  0.24999999947862156  0.587023984422954  1.0000
  N   N4        1.0  0.5468315555040392  0.749999999910898  0.4129760156043971  1.0000
  N   N5        1.0  0.5701011111293444  0.24999999947862156  0.6388253126781801  1.0000
  N   N6        1.0  0.42989888907523016  0.749999999910898  0.361174687349171  1.0000
  N   N7        1.0  0.37164180622950965  0.24999999947862156  0.4734663457214844  1.0000
  N   N8        1.0  0.628358193975065  0.749999999910898  0.5265336543058668  1.0000
  N   N9        1.0  0.6270475368700392  0.24999999947862156  0.5094692061245544  1.0000
  N   N10       1.0  0.3729524622475831  0.749999999910898  0.4905307939050978  1.0000
  O   O1        1.0  0.5567716655938542  0.24999999947862156  0.3159185580871514  1.0000
  O   O2        1.0  0.44322833461072053  0.749999999910898  0.6840814419401998  1.0000
  O   O3        1.0  0.8427922802792279  0.24999999947862156  0.6941295000133114  1.0000
  O   O4        1.0  0.15720771992534655  0.749999999910898  0.30587050001403965  1.0000
  O   O5        1.0  0.08428319384914612  0.24999999947862156  0.4970840376867089  1.0000
  O   O6        1.0  0.9157168063554284  0.749999999910898  0.5029159623406422  1.0000
  S   S1        1.0  0.026388929511638574  0.24999999947862156  0.5648903822842819  1.0000
  S   S2        1.0  0.9736110706929361  0.749999999910898  0.4351096177430693  1.0000
  I   I1        1.0  0.9897220340845504  0.24999999947862156  0.09260110412480871  1.0000
  I   I2        1.0  0.010277966120024178  0.749999999910898  0.9073988959025425  1.0000
  I   I3        1.0  0.651797225615871  0.24999999947862156  0.16975306144593375  1.0000
  I   I4        1.0  0.3482027745887037  0.749999999910898  0.8302469385814175  1.0000
  I   I5        1.0  0.12614341857534364  0.24999999947862156  0.8091466863924239  1.0000
  I   I6        1.0  0.873856581629231  0.749999999910898  0.19085331363492725  1.0000
  I   I7        1.0  0.6387722507338742  0.24999999947862156  0.979811410271483  1.0000
  I   I8        1.0  0.36122774947070047  0.749999999910898  0.02018858975586828  1.0000
