data_image0
_chemical_formula_structural       H44C170N4O4S4
_chemical_formula_sum              "H44 C170 N4 O4 S4"
_cell_length_a       10.850351549115588
_cell_length_b       13.574891947327817
_cell_length_c       17.922346145089932
_cell_angle_alpha    70.1801001131823
_cell_angle_beta     73.26466094931263
_cell_angle_gamma    88.40973475923289

_space_group_name_H-M_alt    "P 1"
_space_group_IT_number       1

loop_
  _space_group_symop_operation_xyz
  'x, y, z'

loop_
  _atom_site_type_symbol
  _atom_site_label
  _atom_site_symmetry_multiplicity
  _atom_site_fract_x
  _atom_site_fract_y
  _atom_site_fract_z
  _atom_site_occupancy
  H   H1        1.0  0.5699755994778083  0.7288899316707934  0.0633761617772486  1.0000
  H   H2        1.0  0.43002439992511726  0.2711100680201257  0.9366238386455545  1.0000
  H   H3        1.0  0.8845823260774421  0.2496140317144143  0.2324751863792998  1.0000
  H   H4        1.0  0.1154176734033197  0.7503859687619038  0.7675248138267697  1.0000
  H   H5        1.0  0.9874732444596644  0.3235038668214269  0.13321720349901492  1.0000
  H   H6        1.0  0.012526755907287787  0.6764961328650193  0.8667827962001243  1.0000
  H   H7        1.0  0.07532553096783318  0.7062790499878809  0.16646214666569864  1.0000
  H   H8        1.0  0.9246744693991191  0.2937209496985652  0.8335378530334407  1.0000
  H   H9        1.0  0.6982820617271301  0.6487619351481034  0.3445155629258773  1.0000
  H   H10       1.0  0.3017179377536317  0.35123806532821455  0.6554844372801923  1.0000
  H   H11       1.0  0.17008320078920158  0.5215085731898808  0.925937029663346  1.0000
  H   H12       1.0  0.8299167996537147  0.4784914272840255  0.07406297037681617  1.0000
  H   H13       1.0  0.07779776169942454  0.39822896752719694  0.9837037414288259  1.0000
  H   H14       1.0  0.922202237703501  0.6017710321637222  0.016296258993977363  1.0000
  H   H15       1.0  0.24736683387896058  0.41007754083620834  0.9765863134590114  1.0000
  H   H16       1.0  0.7526331665639557  0.589922459637698  0.023413686581150745  1.0000
  H   H17       1.0  0.9364235568943267  0.6501785003684337  0.3132133430693916  1.0000
  H   H18       1.0  0.06357644250859897  0.34982149932248535  0.6867866573534116  1.0000
  H   H19       1.0  0.1706820412017053  0.8674327068013985  0.9294822496805782  1.0000
  H   H20       1.0  0.8293179592430833  0.13256729367044634  0.07051774980182743  1.0000
  H   H21       1.0  0.7367036984240714  0.7615119162012282  0.08383641621155316  1.0000
  H   H22       1.0  0.26329630201884496  0.23848808427267806  0.9161635838286091  1.0000
  H   H23       1.0  0.5289844672710722  0.7502595188657014  0.18174687626893501  1.0000
  H   H24       1.0  0.47101553309588023  0.24974048082074463  0.8182531234302044  1.0000
  H   H25       1.0  0.515279190275168  0.7329952314786888  0.2863082853567646  1.0000
  H   H26       1.0  0.4847208101677484  0.2670047689952173  0.7136917146833976  1.0000
  H   H27       1.0  0.5113093103638406  0.07981359990333774  0.8465288203955662  1.0000
  H   H28       1.0  0.48869069007907573  0.9201864005705684  0.15347117964459603  1.0000
  H   H29       1.0  0.6146203388915994  0.9483068657998311  0.9389505122021637  1.0000
  H   H30       1.0  0.3853796605113261  0.05169313389108797  0.06104948822063955  1.0000
  H   H31       1.0  0.2905136049887369  0.04122131041185484  0.8436308841411374  1.0000
  H   H32       1.0  0.7094863944141886  0.9587786892790642  0.15636911628166578  1.0000
  H   H33       1.0  0.974109274175945  0.760212179443409  0.05164469412183355  1.0000
  H   H34       1.0  0.02589072530481709  0.23978782103290897  0.948355306084236  1.0000
  H   H35       1.0  0.15225202287701473  0.22788673315579785  0.054495489129102744  1.0000
  H   H36       1.0  0.8477479774880652  0.7721132665327094  0.9455045111277932  1.0000
  H   H37       1.0  0.8513022698914606  0.06233219703147679  0.2770574360687905  1.0000
  H   H38       1.0  0.14869772951146482  0.9376678026594423  0.7229425643540126  1.0000
  H   H39       1.0  0.17912143891605684  0.06579940911662067  0.016658737917159733  1.0000
  H   H40       1.0  0.8208785614490232  0.9342005905718868  0.9833412623397361  1.0000
  H   H41       1.0  0.04089995030625118  0.9031639221207054  0.10906411791373287  1.0000
  H   H42       1.0  0.9591000500588288  0.09683607756780199  0.8909358823431629  1.0000
  H   H43       1.0  0.8795546641791003  0.8996432741651005  0.24077224077146459  1.0000
  H   H44       1.0  0.12044533618785185  0.10035672552134564  0.7592277589276749  1.0000
  C   C1        1.0  0.745101392148972  0.18363585771646943  0.6624612455773088  1.0000
  C   C2        1.0  0.254898608216108  0.8163641419720379  0.337538754679587  1.0000
  C   C3        1.0  0.5425620687132163  0.5294003027721171  0.2052810520100794  1.0000
  C   C4        1.0  0.4574379317315723  0.4705996976997279  0.7947189474723262  1.0000
  C   C5        1.0  0.47764415203006666  0.514604712943879  0.15351561684091974  1.0000
  C   C6        1.0  0.5223558483350134  0.48539528674462834  0.8464843834159762  1.0000
  C   C7        1.0  0.628337697583365  0.44459231511168584  0.22150629915280604  1.0000
  C   C8        1.0  0.3716623027817148  0.5554076845768214  0.7784937011040898  1.0000
  C   C9        1.0  0.3250847932118841  0.8118598310832552  0.9842803423647648  1.0000
  C   C10       1.0  0.6749152061910414  0.18814016860766375  0.015719658058038658  1.0000
  C   C11       1.0  0.5189113666243921  0.42102632564942305  0.13417312901781758  1.0000
  C   C12       1.0  0.48108863278040576  0.5789736740394348  0.8658268708472291  1.0000
  C   C13       1.0  0.3464263704178229  0.5901167620600152  0.2809023009725131  1.0000
  C   C14       1.0  0.6535736300250934  0.409883238413891  0.7190976990676492  1.0000
  C   C15       1.0  0.5273234251643014  0.19948561548113178  0.20248133919768838  1.0000
  C   C16       1.0  0.472676574238624  0.8005143842097874  0.7975186612251149  1.0000
  C   C17       1.0  0.2205918031957412  0.2843498788105047  0.17881347084820218  1.0000
  C   C18       1.0  0.7794081962868931  0.7156501216637521  0.8211865288001108  1.0000
  C   C19       1.0  0.2828622666259212  0.5754653885501838  0.22875541650085893  1.0000
  C   C20       1.0  0.7171377327788767  0.424534611138674  0.7712445833641878  1.0000
  C   C21       1.0  0.6481234668088672  0.4009344706801333  0.29890816544982896  1.0000
  C   C22       1.0  0.3518765335562128  0.599065529008374  0.7010918348070668  1.0000
  C   C23       1.0  0.304029406702051  0.19782118836141788  0.1946572257387414  1.0000
  C   C24       1.0  0.6959705936630289  0.8021788113270893  0.8053427745181546  1.0000
  C   C25       1.0  0.1554570158343913  0.5136794523114271  0.4022581760070397  1.0000
  C   C26       1.0  0.8445429846103973  0.4863205481604179  0.597741823475366  1.0000
  C   C27       1.0  0.2489566145221723  0.4840295334546737  0.13676971331950813  1.0000
  C   C28       1.0  0.7510433848807532  0.5159704662362453  0.8632302871032951  1.0000
  C   C29       1.0  0.19826621855469176  0.642607817329167  0.025338612069766914  1.0000
  C   C30       1.0  0.8017337818900969  0.35739218314267795  0.9746613874126387  1.0000
  C   C31       1.0  0.4361311591654443  0.2420418200586421  0.161482333179462  1.0000
  C   C32       1.0  0.5638688412774719  0.7579581804152642  0.8385176668607002  1.0000
  C   C33       1.0  0.13488669152438  0.463491539037287  0.21621223520214825  1.0000
  C   C34       1.0  0.8651133089185364  0.5365084614366193  0.7837877648380139  1.0000
  C   C35       1.0  0.48171361390294315  0.7399321854468094  0.04588149251348632  1.0000
  C   C36       1.0  0.5182863865399732  0.26006781502709675  0.9541185075266757  1.0000
  C   C37       1.0  0.6187532796739106  0.26889961882569396  0.21000775181013873  1.0000
  C   C38       1.0  0.3812467198068513  0.731100381650624  0.7899922483959309  1.0000
  C   C39       1.0  0.3522612325495527  0.5619139747798054  0.14490116192852495  1.0000
  C   C40       1.0  0.6477387668533727  0.43808602491111376  0.8550988384942783  1.0000
  C   C41       1.0  0.08897771111798933  0.4987238467035338  0.3476731886859442  1.0000
  C   C42       1.0  0.9110222882849364  0.5012761529873854  0.652326811736859  1.0000
  C   C43       1.0  0.6145741308029105  0.3775674270264565  0.17613636753891304  1.0000
  C   C44       1.0  0.3854258686778515  0.6224325734498615  0.8238636326671566  1.0000
  C   C45       1.0  0.6371281919913967  0.22283987216227702  0.2913518996133498  1.0000
  C   C46       1.0  0.36287180748936515  0.777160128314041  0.7086481005927199  1.0000
  C   C47       1.0  0.4498899131072902  0.8331919850780439  0.9885324247749696  1.0000
  C   C48       1.0  0.550110087259662  0.16680801460840225  0.011467574924169773  1.0000
  C   C49       1.0  0.651154987516585  0.28817754337900353  0.33503311799130486  1.0000
  C   C50       1.0  0.34884501292633124  0.7118224570949025  0.6649668820488572  1.0000
  C   C51       1.0  0.2673576064460915  0.1112916773499556  0.2674087599265451  1.0000
  C   C52       1.0  0.7326423939208607  0.8887083223364904  0.7325912397725942  1.0000
  C   C53       1.0  0.5799922092097597  0.4396970232833879  0.3660262315916612  1.0000
  C   C54       1.0  0.42000779123502896  0.5603029771884571  0.6339737678907444  1.0000
  C   C55       1.0  0.2959196946115009  0.03654962578956295  0.3995422839350535  1.0000
  C   C56       1.0  0.7040803048711333  0.9634503746846937  0.6004577157132597  1.0000
  C   C57       1.0  0.11724058053661132  0.42494640698552405  0.47951337541364913  1.0000
  C   C58       1.0  0.882759419830341  0.5750535927009219  0.5204866242854903  1.0000
  C   C59       1.0  0.08111885225595131  0.2739676604512324  0.2304506374169223  1.0000
  C   C60       1.0  0.9188811471488464  0.7260323392376256  0.7695493624481244  1.0000
  C   C61       1.0  0.29681805826903873  0.37791014510314735  0.13769983327181254  1.0000
  C   C62       1.0  0.7031819421757498  0.6220898553686978  0.8623001662105931  1.0000
  C   C63       1.0  0.09797947642465604  0.09632428808430252  0.47567696995283476  1.0000
  C   C64       1.0  0.9020205239422964  0.9036757116021437  0.5243230297463044  1.0000
  C   C65       1.0  0.008123958049576786  0.40210069142737925  0.39016807343025756  1.0000
  C   C66       1.0  0.9918760413533488  0.5978993082635399  0.6098319269925457  1.0000
  C   C67       1.0  0.4315406467407099  0.3549536678805583  0.12703913797635835  1.0000
  C   C68       1.0  0.5684593536243701  0.645046331807949  0.8729608622805374  1.0000
  C   C69       1.0  0.28370578947884884  0.5562571345890204  0.36868366062080643  1.0000
  C   C70       1.0  0.716294209925949  0.44374286509983746  0.6313163392442404  1.0000
  C   C71       1.0  0.2947145064322605  0.0873992433638794  0.5195616962669949  1.0000
  C   C72       1.0  0.7052854940106559  0.9126007571100269  0.48043830377316726  1.0000
  C   C73       1.0  0.7012931871018705  0.7049563496306722  0.2164732750629375  1.0000
  C   C74       1.0  0.2987068123029274  0.29504365005818567  0.7835267248021092  1.0000
  C   C75       1.0  0.379915606547599  0.6660281897735231  0.07523558741058907  1.0000
  C   C76       1.0  0.6200843938193533  0.33397180991292297  0.9247644122885502  1.0000
  C   C77       1.0  0.9961192084088837  0.33853699252812075  0.34478406826765096  1.0000
  C   C78       1.0  0.0038807919580686303  0.6614630071583254  0.6552159314314883  1.0000
  C   C79       1.0  0.4999825170848586  0.5207284277938637  0.3517780668110489  1.0000
  C   C80       1.0  0.5000174832820936  0.47927157189258224  0.6482219328880905  1.0000
  C   C81       1.0  0.14308608171801745  0.10680843913363125  0.3298502805630968  1.0000
  C   C82       1.0  0.8569139187248989  0.893191561340275  0.6701497194770654  1.0000
  C   C83       1.0  0.154732888905796  0.5260011779371854  0.262433826602753  1.0000
  C   C84       1.0  0.8452671104990017  0.4739988217516725  0.7375661732622938  1.0000
  C   C85       1.0  0.5567704997809233  0.12441773387402351  0.3343334028520153  1.0000
  C   C86       1.0  0.4432294996220022  0.8755822658168956  0.6656665975707882  1.0000
  C   C87       1.0  0.013679018853385122  0.18022257904767416  0.4606141049379056  1.0000
  C   C88       1.0  0.9863209815116948  0.8197774206408333  0.5393858953189902  1.0000
  C   C89       1.0  0.508545097509911  0.16224587723811978  0.464890349907278  1.0000
  C   C90       1.0  0.4914549028570414  0.8377541224483265  0.5351096497918612  1.0000
  C   C91       1.0  0.48914830287078703  0.11010467325836698  0.2789416546272202  1.0000
  C   C92       1.0  0.5108516974961651  0.889895326428079  0.7210583450719191  1.0000
  C   C93       1.0  0.9984938321193914  0.22544447368870724  0.3808855786903636  1.0000
  C   C94       1.0  0.001506168245688475  0.7745555259998  0.6191144215665323  1.0000
  C   C95       1.0  0.16510576138379462  0.10981516711565022  0.5311962936780938  1.0000
  C   C96       1.0  0.8348942380988396  0.8901848333586067  0.4688037059702192  1.0000
  C   C97       1.0  0.025566615688824595  0.3554956628494171  0.47203529875388256  1.0000
  C   C98       1.0  0.9744333846781277  0.6445043368370291  0.5279647009452568  1.0000
  C   C99       1.0  0.16244117389020776  0.06090699907487336  0.41085282906181864  1.0000
  C   C100      1.0  0.8375588255924264  0.9390930013993835  0.5891471705864946  1.0000
  C   C101      1.0  0.36087165459458614  0.06729986168907867  0.31089917362413094  1.0000
  C   C102      1.0  0.6391283457723661  0.9327001379973674  0.6891008260750083  1.0000
  C   C103      1.0  0.49284426887887367  0.5884222522749458  0.26463784632006065  1.0000
  C   C104      1.0  0.507155731565915  0.41157774819689924  0.735362153162345  1.0000
  C   C105      1.0  0.3777775442679693  0.5139991719549541  0.4122561846645032  1.0000
  C   C106      1.0  0.6222224552127926  0.48600082852136384  0.5877438155415664  1.0000
  C   C107      1.0  0.02840672380972901  0.24660840613982984  0.506659165396856  1.0000
  C   C108      1.0  0.9715932756710328  0.7533915943364882  0.49334083480921365  1.0000
  C   C109      1.0  0.05721716288477127  0.37099749791393993  0.25659859574127464  1.0000
  C   C110      1.0  0.9427828375600175  0.6290025025579051  0.7434014037411311  1.0000
  C   C111      1.0  0.585369227279575  0.2569082369736547  0.42361112591310224  1.0000
  C   C112      1.0  0.4146307730855049  0.7430917627148527  0.5763888743437936  1.0000
  C   C113      1.0  0.12208818360052627  0.20317000180584419  0.5504304567320192  1.0000
  C   C114      1.0  0.8779118167645535  0.7968299978826632  0.4495695435248767  1.0000
  C   C115      1.0  0.061772618607417965  0.18674546520407984  0.31555415515959123  1.0000
  C   C116      1.0  0.9382273818354984  0.8132545352698264  0.684445844880571  1.0000
  C   C117      1.0  0.36096222881079104  0.0496513890080275  0.4527764327721504  1.0000
  C   C118      1.0  0.6390377715542889  0.9503486106804798  0.5472235674847454  1.0000
  C   C119      1.0  0.9805882481235045  0.2545827160065997  0.18858245330644463  1.0000
  C   C120      1.0  0.01941175232128396  0.7454172844652454  0.8114175461759612  1.0000
  C   C121      1.0  0.3404158472123992  0.42919022601682233  0.4878248680308916  1.0000
  C   C122      1.0  0.659584153230517  0.5708097744570839  0.5121751320092707  1.0000
  C   C123      1.0  0.20788491270536194  0.3833550005684978  0.5214076004187526  1.0000
  C   C124      1.0  0.7921150877394267  0.6166449999033473  0.4785923990636532  1.0000
  C   C125      1.0  0.9706651588828755  0.7049736384631646  0.18038373458065846  1.0000
  C   C126      1.0  0.029334840520050077  0.29502636122775444  0.819616265842145  1.0000
  C   C127      1.0  0.49341145880424997  0.09539490290949797  0.41920805534029254  1.0000
  C   C128      1.0  0.5065885406765119  0.90460509756682  0.5807919448657769  1.0000
  C   C129      1.0  0.4245334260230027  0.34507710232417466  0.5030841453072056  1.0000
  C   C130      1.0  0.5754665744199137  0.6549228981497316  0.4969158547329566  1.0000
  C   C131      1.0  0.5421179709900633  0.35019782279427714  0.4424308619077504  1.0000
  C   C132      1.0  0.4578820293768891  0.6498021768921691  0.557569137791389  1.0000
  C   C133      1.0  0.3858642228310724  0.15692897999713953  0.5270326001669476  1.0000
  C   C134      1.0  0.6141357776137162  0.8430710204747054  0.47296739931545806  1.0000
  C   C135      1.0  0.7592284745102966  0.6738984285034877  0.28042703701607036  1.0000
  C   C136      1.0  0.24077152593261963  0.32610157197041856  0.7195729630240918  1.0000
  C   C137      1.0  0.1571229737554657  0.4494993379735704  0.9799593506110857  1.0000
  C   C138      1.0  0.8428770266096144  0.550500661714937  0.020040649645809906  1.0000
  C   C139      1.0  0.892966309963177  0.6741900665661346  0.2626803228846315  1.0000
  C   C140      1.0  0.10703368944162081  0.3258099331227234  0.7373196769804153  1.0000
  C   C141      1.0  0.2654250945075854  0.8851938532609854  0.9328863363537245  1.0000
  C   C142      1.0  0.7345749048972124  0.11480614642787247  0.06711366351132231  1.0000
  C   C143      1.0  0.7804301912602846  0.7361109090589466  0.13427275800356847  1.0000
  C   C144      1.0  0.21956980814264096  0.2638890906319724  0.8657272424192347  1.0000
  C   C145      1.0  0.557336141769834  0.7018039694672833  0.23608735697011232  1.0000
  C   C146      1.0  0.44266385859711826  0.2981960302191628  0.763912642729027  1.0000
  C   C147      1.0  0.4590288883756532  0.004179304145933611  0.8865187197852826  1.0000
  C   C148      1.0  0.540971111106981  0.995820696328323  0.11348127986303047  1.0000
  C   C149      1.0  0.5175644790332891  0.9307112480135161  0.9383174233676058  1.0000
  C   C150      1.0  0.4824355213317908  0.06928875167499107  0.061682576889290054  1.0000
  C   C151      1.0  0.9985666877870538  0.1562523849342509  0.16735966149472345  1.0000
  C   C152      1.0  0.0014333116955803256  0.8437476155400059  0.8326403381535897  1.0000
  C   C153      1.0  0.33450908848029076  0.9821329647318223  0.884392769994823  1.0000
  C   C154      1.0  0.6654909118847891  0.017867034956684985  0.11560723026207288  1.0000
  C   C155      1.0  0.2104479630121575  0.2704102747662156  0.5573758508123445  1.0000
  C   C156      1.0  0.7895520364704767  0.7295897257080413  0.44262414883596857  1.0000
  C   C157      1.0  0.34465833777646915  0.24671561450508575  0.5458206736346551  1.0000
  C   C158      1.0  0.6553416626683195  0.7532843859667594  0.4541793258477506  1.0000
  C   C159      1.0  0.9141877473100398  0.7361534690904146  0.11597515473604543  1.0000
  C   C160      1.0  0.08581225217072215  0.26384653138590336  0.884024845470024  1.0000
  C   C161      1.0  0.09225427456614518  0.15581745284234494  0.0948871749778415  1.0000
  C   C162      1.0  0.9077457248386526  0.844182546846513  0.9051128248872052  1.0000
  C   C163      1.0  0.9231233510244542  0.06299272668599834  0.21990929055344605  1.0000
  C   C164      1.0  0.07687664934062562  0.937007273002509  0.7800907097034498  1.0000
  C   C165      1.0  0.10789078942156881  0.06524411107215064  0.07397768330463678  1.0000
  C   C166      1.0  0.8921092109453835  0.9347558886142955  0.9260223163945026  1.0000
  C   C167      1.0  0.03025393682964118  0.9734080042488367  0.1259090999061835  1.0000
  C   C168      1.0  0.9697460625732843  0.026591995442082492  0.8740909005166199  1.0000
  C   C169      1.0  0.938681930803539  0.9719202316411746  0.19945105036728564  1.0000
  C   C170      1.0  0.06131806963937732  0.028079768832731673  0.8005489496728766  1.0000
  N   N1        1.0  0.2839305158829108  0.7072782868121044  0.037355075108709834  1.0000
  N   N2        1.0  0.7160694835200148  0.29272171287881477  0.9626449253140934  1.0000
  N   N3        1.0  0.21091542852158024  0.5362245203698671  0.06033387033890776  1.0000
  N   N4        1.0  0.7890845719213362  0.46377548010403913  0.9396661297012544  1.0000
  O   O1        1.0  0.11495522428861048  0.4732114393050963  0.055649322827068165  1.0000
  O   O2        1.0  0.885044775114315  0.5267885603858228  0.944350677595735  1.0000
  O   O3        1.0  0.12763009686678348  0.6776772568118713  0.9814423195035712  1.0000
  O   O4        1.0  0.8723699025380143  0.32232274287698665  0.018557680361475325  1.0000
  S   S1        1.0  0.6794018620818925  0.21637386513670756  0.5920136712564013  1.0000
  S   S2        1.0  0.3205981373988694  0.7836261353396103  0.40798632894966835  1.0000
  S   S3        1.0  0.812050345010514  0.14989552492624308  0.7321734565184824  1.0000
  S   S4        1.0  0.18794965447024778  0.8501044755500748  0.2678265436875873  1.0000
