data_image0
_chemical_formula_structural       H28C36N16S12
_chemical_formula_sum              "H28 C36 N16 S12"
_cell_length_a       4.219645711404147
_cell_length_b       28.73024867250762
_cell_length_c       9.173389991315162
_cell_angle_alpha    90.0
_cell_angle_beta     101.99598010623608
_cell_angle_gamma    90.0

_space_group_name_H-M_alt    "P 1"
_space_group_IT_number       1

loop_
  _space_group_symop_operation_xyz
  'x, y, z'

loop_
  _atom_site_type_symbol
  _atom_site_label
  _atom_site_symmetry_multiplicity
  _atom_site_fract_x
  _atom_site_fract_y
  _atom_site_fract_z
  _atom_site_occupancy
  H   H1        1.0  0.47554809658686076  0.09206348159913576  0.38692941930634067  1.0000
  H   H2        1.0  0.5244519033458709  0.5920634817295275  0.6130705805141562  1.0000
  H   H3        1.0  0.15301910372092342  0.14304159309044037  0.7386324384225473  1.0000
  H   H4        1.0  0.8469808962118082  0.6430415932208321  0.2613675613979495  1.0000
  H   H5        1.0  0.06598129562703267  0.9994355296853681  0.674550868670534  1.0000
  H   H6        1.0  0.9340187043056989  0.49943552955497633  0.32544913114996277  1.0000
  H   H7        1.0  0.7264731165224165  0.2702781712234391  0.028837300373990855  1.0000
  H   H8        1.0  0.273526883410315  0.7702781710057657  0.9711626994465059  1.0000
  H   H9        1.0  0.26968351721704653  0.17798585658930458  0.3244613228045425  1.0000
  H   H10       1.0  0.730316482715685  0.6779858567196964  0.6755386770159543  1.0000
  H   H11       1.0  0.5770686020715962  0.1284690297001125  0.9758774786910438  1.0000
  H   H12       1.0  0.4229313978611354  0.6284690294824392  0.024122521129453133  1.0000
  H   H13       1.0  0.7185465791809147  0.2703421076696892  0.7521656261289829  1.0000
  H   H14       1.0  0.2814534207518169  0.7703421078000809  0.24783437369151393  1.0000
  H   H15       1.0  0.954027375648029  0.3177426155985729  0.5736957915634016  1.0000
  H   H16       1.0  0.04597262428470258  0.8177426153808995  0.4263042082570953  1.0000
  H   H17       1.0  0.12302674736169932  0.4007884369973667  0.6437389691031414  1.0000
  H   H18       1.0  0.8769732525710322  0.9007884367796933  0.3562610307173554  1.0000
  H   H19       1.0  0.1638946899858218  0.4655072913725909  0.8261605206878773  1.0000
  H   H20       1.0  0.8361053099469097  0.9655072915029828  0.17383947913261963  1.0000
  H   H21       1.0  0.09096430223667856  0.4949008176739521  0.07035765554566856  1.0000
  H   H22       1.0  0.9090356976960529  0.9949008178043439  0.9296423442748283  1.0000
  H   H23       1.0  0.6611288511322924  0.4406376865827193  0.4543467025904149  1.0000
  H   H24       1.0  0.3388711487856053  0.9406376863650459  0.5456532983187529  1.0000
  H   H25       1.0  0.4423580993405591  0.36041141926865977  0.3871110807815649  1.0000
  H   H26       1.0  0.5576419005921724  0.8604114193990515  0.6128889190389318  1.0000
  H   H27       1.0  0.5169046124629935  0.32502194764974746  0.14876029692468964  1.0000
  H   H28       1.0  0.48309538746973807  0.8250219477801394  0.8512397028958072  1.0000
  C   C1        1.0  0.7602115573462606  0.04123572174763903  0.5093257458173065  1.0000
  C   C2        1.0  0.23978844258647092  0.5412357218780308  0.4906742540031902  1.0000
  C   C3        1.0  0.7932050885755646  0.12462442496803801  0.559235404585516  1.0000
  C   C4        1.0  0.206794911357167  0.6246244250984299  0.44076459523498074  1.0000
  C   C5        1.0  0.1497513842447245  0.07083629985936941  0.7194502491425435  1.0000
  C   C6        1.0  0.8502486156731731  0.570836299641696  0.28054975176662417  1.0000
  C   C7        1.0  0.5985896549063662  0.20068421320408847  0.9906518931593525  1.0000
  C   C8        1.0  0.40141034502636536  0.700684212986415  0.00934810666114427  1.0000
  C   C9        1.0  0.0054727124036342235  0.22965130950341062  0.19759580821668787  1.0000
  C   C10       1.0  0.9945272875290975  0.7296513096338024  0.8024041916038089  1.0000
  C   C11       1.0  0.9452696559812321  0.14607060968517924  0.15296461766324976  1.0000
  C   C12       1.0  0.054730343951499484  0.6460706094675058  0.847035382157247  1.0000
  C   C13       1.0  0.8278910327137332  0.3669240291013427  0.9475606524118446  1.0000
  C   C14       1.0  0.17210896721899832  0.8669240292317345  0.0524393474086522  1.0000
  C   C15       1.0  0.7916653851838773  0.30629349019247215  0.779196283925105  1.0000
  C   C16       1.0  0.20833461474885434  0.806293490322864  0.2208037158953918  1.0000
  C   C17       1.0  0.9229072642775088  0.3332430202444312  0.6782909467379759  1.0000
  C   C18       1.0  0.0770927356552228  0.833243020374823  0.32170905308252096  1.0000
  C   C19       1.0  0.014215400374270076  0.3785509691883477  0.7164746793218489  1.0000
  C   C20       1.0  0.9857845995584615  0.8785509693187395  0.283525320498648  1.0000
  C   C21       1.0  0.9667797757855217  0.3967430703413093  0.8533096861303481  1.0000
  C   C22       1.0  0.0332202241472098  0.8967430704717011  0.14669031369014868  1.0000
  C   C23       1.0  0.058258140980653614  0.4432668476060376  0.8999388850445398  1.0000
  C   C24       1.0  0.9417418589520781  0.9432668473883642  0.10006111477595704  1.0000
  C   C25       1.0  0.016980101303666888  0.4597649171286161  0.034175566125070306  1.0000
  C   C26       1.0  0.9830198986142306  0.9597649169109427  0.9658244347840974  1.0000
  C   C27       1.0  0.8732269059433934  0.4312119456820101  0.13007709290698416  1.0000
  C   C28       1.0  0.1267730939893381  0.9312119454643366  0.8699229069135126  1.0000
  C   C29       1.0  0.6895645507244121  0.4238724804931209  0.3508759239867204  1.0000
  C   C30       1.0  0.31043544920831934  0.9238724806235127  0.6491240758337765  1.0000
  C   C31       1.0  0.5693703032740648  0.3790699201438355  0.3131909129645977  1.0000
  C   C32       1.0  0.43062969665866674  0.879069919926162  0.6868090868558991  1.0000
  C   C33       1.0  0.61218838478145  0.35953256993157895  0.18095875241615483  1.0000
  C   C34       1.0  0.3878116151512815  0.8595325700619707  0.8190412474043419  1.0000
  C   C35       1.0  0.7708881081780382  0.38511399591844464  0.08663538654753462  1.0000
  C   C36       1.0  0.22911189175469332  0.8851139960488364  0.9133646132729624  1.0000
  N   N1        1.0  0.6582151476076902  0.08658180889260245  0.48087747020949395  1.0000
  N   N2        1.0  0.34178485232504136  0.5865818090229943  0.5191225296110029  1.0000
  N   N3        1.0  0.043975513726330545  0.11484489840693093  0.6758299349291134  1.0000
  N   N4        1.0  0.956024486206401  0.6148448985373227  0.32417006489138356  1.0000
  N   N5        1.0  0.0010990035448503136  0.03512666045824084  0.6334624150965754  1.0000
  N   N6        1.0  0.9989009963878812  0.5351266605886327  0.3665375847239213  1.0000
  N   N7        1.0  0.7655024887059433  0.23618683246878186  0.0722988667967382  1.0000
  N   N8        1.0  0.23449751121195428  0.7361868322511085  0.9277011341124294  1.0000
  N   N9        1.0  0.08847839006625194  0.1839255879833909  0.2299340164350083  1.0000
  N   N10       1.0  0.9115216098664797  0.6839255877657174  0.7700659833854885  1.0000
  N   N11       1.0  0.6920170109087874  0.1565873366179722  0.037845370042791274  1.0000
  N   N12       1.0  0.30798298902394416  0.656587336748364  0.9621546297777056  1.0000
  N   N13       1.0  0.7479432445361346  0.32194927741266477  0.910317764057563  1.0000
  N   N14       1.0  0.25205675538176303  0.8219492775430566  0.08968223685160467  1.0000
  N   N15       1.0  0.8341808316242677  0.4492570641183188  0.26245943228159113  1.0000
  N   N16       1.0  0.16581916830846385  0.9492570639006455  0.7375405675389057  1.0000
  S   S1        1.0  0.5970942075419464  0.998670889592955  0.3974709033130529  1.0000
  S   S2        1.0  0.40290579239078506  0.49867088981062835  0.6025290965074439  1.0000
  S   S3        1.0  0.6684396835162035  0.17881854308195205  0.519013687284865  1.0000
  S   S4        1.0  0.33156031641652794  0.6788185428642787  0.4809863125356318  1.0000
  S   S5        1.0  0.4424039616600769  0.06204985137166244  0.8689551292109268  1.0000
  S   S6        1.0  0.5575960382726547  0.5620498511539891  0.13104487060957  1.0000
  S   S7        1.0  0.30220465044590133  0.2102189834430295  0.8437885407526443  1.0000
  S   S8        1.0  0.6977953494868302  0.7102189835734214  0.15621145906785253  1.0000
  S   S9        1.0  0.18349216992158482  0.2725226126390021  0.3027530905106368  1.0000
  S   S10       1.0  0.8165078299963128  0.7725226127693939  0.6972469103985309  1.0000
  S   S11       1.0  0.06381140630983641  0.09168903339568897  0.19257644014041708  1.0000
  S   S12       1.0  0.9361885936228952  0.5916890335260808  0.8074235596800797  1.0000
