data_image0
_chemical_formula_structural       H120C88N12O4Br4
_chemical_formula_sum              "H120 C88 N12 O4 Br4"
_cell_length_a       5.519236268001616
_cell_length_b       14.95969580856912
_cell_length_c       24.898850838062643
_cell_angle_alpha    90.0
_cell_angle_beta     90.0
_cell_angle_gamma    90.0

_space_group_name_H-M_alt    "P 1"
_space_group_IT_number       1

loop_
  _space_group_symop_operation_xyz
  'x, y, z'

loop_
  _atom_site_type_symbol
  _atom_site_label
  _atom_site_symmetry_multiplicity
  _atom_site_fract_x
  _atom_site_fract_y
  _atom_site_fract_z
  _atom_site_occupancy
  H   H1        1.0  0.6277398668519885  0.027467208241268526  0.32718486258596635  1.0000
  H   H2        1.0  0.8722601327852034  0.9725327911859176  0.8271848622232459  1.0000
  H   H3        1.0  0.1277398675768728  0.4725327914723246  0.6728151374918426  1.0000
  H   H4        1.0  0.3722601316982429  0.5274672086233244  0.17281513745293814  1.0000
  H   H5        1.0  0.2407630758088813  0.16051361476378012  0.08616840005805419  1.0000
  H   H6        1.0  0.2592369234662344  0.8394863853318688  0.5861684000969587  1.0000
  H   H7        1.0  0.7407630768958419  0.339486384949813  0.9138316000197549  1.0000
  H   H8        1.0  0.7592369245531949  0.660513615145836  0.41383159998085034  1.0000
  H   H9        1.0  0.9537621519337462  0.4522343132221144  0.040193828482642927  1.0000
  H   H10       1.0  0.5462378477034456  0.5477656868735346  0.5401938285215475  1.0000
  H   H11       1.0  0.4537621508467858  0.04776568715994145  0.9598061715951662  1.0000
  H   H12       1.0  0.046237848428329925  0.9522343129357076  0.4598061715562616  1.0000
  H   H13       1.0  0.9065312041464023  0.9521227779137826  0.2619462634006238  1.0000
  H   H14       1.0  0.5934687954907897  0.04787722218186644  0.7619462634395283  1.0000
  H   H15       1.0  0.40653120487128663  0.5478772225639224  0.7380537366771852  1.0000
  H   H16       1.0  0.0934687944038291  0.45212277753172664  0.23805373663828072  1.0000
  H   H17       1.0  0.03722877043536993  0.06679618508202656  0.14210164408837841  1.0000
  H   H18       1.0  0.46277122883974575  0.9332038150136225  0.642101644127283  1.0000
  H   H19       1.0  0.5372287715223304  0.43320381463156654  0.8578983559894306  1.0000
  H   H20       1.0  0.9627712299267064  0.5667961847956197  0.3578983559505261  1.0000
  H   H21       1.0  0.2808967264163416  0.04372891523805462  0.18548001994293406  1.0000
  H   H22       1.0  0.2191032728587741  0.9562710848575944  0.6854800195802137  1.0000
  H   H23       1.0  0.7808967256914572  0.4562710844755385  0.8145199801348749  1.0000
  H   H24       1.0  0.7191032739457347  0.5437289156201105  0.3145199800959705  1.0000
  H   H25       1.0  0.35906216435948013  0.20166462999013063  0.20110660578541042  1.0000
  H   H26       1.0  0.14093783672748042  0.7983353694370556  0.7011066058243149  1.0000
  H   H27       1.0  0.8590621636345959  0.2983353697234625  0.7988933938907737  1.0000
  H   H28       1.0  0.6409378360025961  0.7016646303721865  0.29889339385186914  1.0000
  H   H29       1.0  0.5275904887207028  0.2750120465446489  0.062419007612358066  1.0000
  H   H30       1.0  0.9724095109164892  0.724987953551  0.5624190076512626  1.0000
  H   H31       1.0  0.027590489445587077  0.224987953837407  0.937580992465451  1.0000
  H   H32       1.0  0.47240950982952856  0.7750120462582419  0.43758099242654647  1.0000
  H   H33       1.0  0.5245206744969071  0.31147208135949916  0.13080458094962488  1.0000
  H   H34       1.0  0.9754793251402847  0.6885279187361498  0.6308045809885294  1.0000
  H   H35       1.0  0.024520675221791462  0.1885279190225567  0.8691954191281843  1.0000
  H   H36       1.0  0.4754793240533242  0.8114720810730923  0.3691954190892797  1.0000
  H   H37       1.0  0.10873273417905151  0.3162669830017446  0.04965074484924266  1.0000
  H   H38       1.0  0.3912672650960642  0.6837330170939043  0.5496507448881472  1.0000
  H   H39       1.0  0.608732735266012  0.18373301671184847  0.9503492548269415  1.0000
  H   H40       1.0  0.8912672643711799  0.8162669833838004  0.4503492551896619  1.0000
  H   H41       1.0  0.8648560340991372  0.3706068827164403  0.13518465819532982  1.0000
  H   H42       1.0  0.6351439655380547  0.6293931167107458  0.6351846578326094  1.0000
  H   H43       1.0  0.3648560348240215  0.12939311699715275  0.8648153418824793  1.0000
  H   H44       1.0  0.13514396626293906  0.8706068830984962  0.3648153418435747  1.0000
  H   H45       1.0  0.7165762721428113  0.38851095800161944  0.21995404629791057  1.0000
  H   H46       1.0  0.7834237274943805  0.6114890420940295  0.7199540463368151  1.0000
  H   H47       1.0  0.21657627286769562  0.11148904171197364  0.7800459537798986  1.0000
  H   H48       1.0  0.2834237282192649  0.8885109583836753  0.28004595374099395  1.0000
  H   H49       1.0  0.4392415294947635  0.3582078244485743  0.29506958926670107  1.0000
  H   H50       1.0  0.060758469780352195  0.6417921756470747  0.7950695893056056  1.0000
  H   H51       1.0  0.9392415287698792  0.14179217593348162  0.704930410811108  1.0000
  H   H52       1.0  0.5607584708673127  0.8582078241621673  0.20493041077220348  1.0000
  H   H53       1.0  0.40387014828902906  0.20813477492078872  0.3366299189674639  1.0000
  H   H54       1.0  0.09612985279793147  0.7918652251748604  0.8366299186047436  1.0000
  H   H55       1.0  0.9038701475641447  0.29186522479280436  0.6633700811103451  1.0000
  H   H56       1.0  0.5961298520730471  0.7081347753028446  0.16337008107144055  1.0000
  H   H57       1.0  0.5887390559521248  0.08767759430299915  0.15061309633885864  1.0000
  H   H58       1.0  0.911260945496912  0.912322405124187  0.6506130963777631  1.0000
  H   H59       1.0  0.08873905486516429  0.41232240541059395  0.8493869037389504  1.0000
  H   H60       1.0  0.41126094440995137  0.587677594685055  0.3493869037000459  1.0000
  H   H61       1.0  0.7380350309726598  0.1731613812973496  0.11357693728085481  1.0000
  H   H62       1.0  0.7619649686645321  0.8268386187982993  0.6135769373197594  1.0000
  H   H63       1.0  0.23803503169754417  0.3268386190847063  0.8864230627969543  1.0000
  H   H64       1.0  0.2619649693894164  0.6731613810109427  0.3864230627580497  1.0000
  H   H65       1.0  0.5693577620908401  0.0900285852890494  0.07835230439702479  1.0000
  H   H66       1.0  0.9306422375463518  0.9099714148065996  0.5783523044359293  1.0000
  H   H67       1.0  0.06935776281572441  0.40997141442454366  0.9216476956807844  1.0000
  H   H68       1.0  0.43064223827123616  0.5900285856711053  0.4216476956418797  1.0000
  H   H69       1.0  0.6929772878494356  0.579919079305784  0.08753524426389096  1.0000
  H   H70       1.0  0.8070227117877564  0.4200809201214022  0.5875352443027956  1.0000
  H   H71       1.0  0.19297728676247497  0.9200809205034581  0.9124647558139181  1.0000
  H   H72       1.0  0.3070227125126407  0.07991907959219088  0.41246475577501357  1.0000
  H   H73       1.0  0.8492367154445268  0.6826209049084099  0.10046848933991377  1.0000
  H   H74       1.0  0.65076328600451  0.31737909518723906  0.6004684893788184  1.0000
  H   H75       1.0  0.3492367143575662  0.8173790949008322  0.8995315107378953  1.0000
  H   H76       1.0  0.15076328491754945  0.18262090519481683  0.39953151069899073  1.0000
  H   H77       1.0  0.8995724406264077  0.5875274385569663  0.14204686806642983  1.0000
  H   H78       1.0  0.6004275590107842  0.41247256153868267  0.6420468681053344  1.0000
  H   H79       1.0  0.3995724413512921  0.9124725612522758  0.8579531316097544  1.0000
  H   H80       1.0  0.10042755973566844  0.0875274381749104  0.3579531315708498  1.0000
  H   H81       1.0  0.24473122628052793  0.6062899276872079  0.07987823024184006  1.0000
  H   H82       1.0  0.2552687748064326  0.393710072408441  0.5798782302807446  1.0000
  H   H83       1.0  0.7447312255556436  0.893710072122034  0.920121769835969  1.0000
  H   H84       1.0  0.7552687740815484  0.10628992797361486  0.4201217697970645  1.0000
  H   H85       1.0  0.9851860177692267  0.6894271495876417  0.009364362697557416  1.0000
  H   H86       1.0  0.5148139818679652  0.31057285050800726  0.509364362736462  1.0000
  H   H87       1.0  0.48518601849411097  0.8105728508900631  0.9906356373802517  1.0000
  H   H88       1.0  0.014813982592849577  0.18942714920558584  0.49063563734134713  1.0000
  H   H89       1.0  0.8847619929429283  0.583325652584554  0.9874924352899623  1.0000
  H   H90       1.0  0.6152380085061083  0.41667434751109494  0.4874924352510578  1.0000
  H   H91       1.0  0.3847619918559679  0.916674347224688  0.012507564787846715  1.0000
  H   H92       1.0  0.11523800741914784  0.08332565287096094  0.5125075648267513  1.0000
  H   H93       1.0  0.33855217991538483  0.5411575204198174  0.9751427340125871  1.0000
  H   H94       1.0  0.16144781935973085  0.45884247967583164  0.4751427339736825  1.0000
  H   H95       1.0  0.8385521810023454  0.9588424793894247  0.024857266065222042  1.0000
  H   H96       1.0  0.6614478186348466  0.04115752070622427  0.5248572661041266  1.0000
  H   H97       1.0  0.4088197425215462  0.6531243853503558  0.9894073128202585  1.0000
  H   H98       1.0  0.09118025675356949  0.34687561474529327  0.4894073127813539  1.0000
  H   H99       1.0  0.9088197436085068  0.8468756151273491  0.01059268725755063  1.0000
  H   H100      1.0  0.59118025784053  0.15312438496829986  0.5105926872964551  1.0000
  H   H101      1.0  0.13684081878840468  0.6987121759529796  0.910223159992368  1.0000
  H   H102      1.0  0.36315918229855587  0.30128782414266925  0.4102231599534635  1.0000
  H   H103      1.0  0.6368408180635203  0.8012878245247251  0.08977684008544105  1.0000
  H   H104      1.0  0.8631591815736716  0.1987121755709238  0.5897768401243456  1.0000
  H   H105      1.0  0.10739224255290143  0.5849188427339385  0.8944240710079622  1.0000
  H   H106      1.0  0.3926077585340591  0.41508115736171053  0.3944240709690576  1.0000
  H   H107      1.0  0.6073922418280171  0.9150811577437664  0.10557592906984692  1.0000
  H   H108      1.0  0.8926077578091748  0.0849188423518826  0.6055759291087515  1.0000
  H   H109      1.0  0.5655377969767839  0.5725471319472804  0.8858458140679476  1.0000
  H   H110      1.0  0.934462202660408  0.4274528681483687  0.38584581443066795  1.0000
  H   H111      1.0  0.06553779588982331  0.9274528678619618  0.11415418560823658  1.0000
  H   H112      1.0  0.43446220338529234  0.0725471322336872  0.6141541856471411  1.0000
  H   H113      1.0  0.5924071902766824  0.6877022288185163  0.9001164228727854  1.0000
  H   H114      1.0  0.9075928093605095  0.3122977712771327  0.4001164228338808  1.0000
  H   H115      1.0  0.09240719100156679  0.8122977709907258  0.09988357720502374  1.0000
  H   H116      1.0  0.4075928082735489  0.18770222910492318  0.5998835772439283  1.0000
  H   H117      1.0  0.44856475421306885  0.6530937122667669  0.8400310297865715  1.0000
  H   H118      1.0  0.05143524687389174  0.34690628782888205  0.3400310297476669  1.0000
  H   H119      1.0  0.9485647534881845  0.8469062875424752  0.15996896988961265  1.0000
  H   H120      1.0  0.5514352461490074  0.15309371188471102  0.6599689699285172  1.0000
  C   C1        1.0  0.8657523302096479  0.02300633611833577  0.25939752047217557  1.0000
  C   C2        1.0  0.634247669427544  0.9769936639773131  0.7593975205110801  1.0000
  C   C3        1.0  0.3657523309345323  0.4769936642637201  0.7406024796056336  1.0000
  C   C4        1.0  0.13424766834058335  0.5230063358319289  0.24060247956672898  1.0000
  C   C5        1.0  0.9570277613631694  0.08843319121784585  0.22567605615798833  1.0000
  C   C6        1.0  0.5429722382740225  0.9115668088778032  0.7256760561968929  1.0000
  C   C7        1.0  0.4570277620880537  0.41156680916421  0.7743239439198208  1.0000
  C   C8        1.0  0.04297223899890683  0.5884331909314389  0.2743239438809162  1.0000
  C   C9        1.0  0.12808710040165885  0.08954598590384903  0.17917227782979564  1.0000
  C   C10       1.0  0.3719129006853017  0.9104540141917999  0.6791722778687002  1.0000
  C   C11       1.0  0.6280870996767746  0.41045401380974406  0.8208277222480134  1.0000
  C   C12       1.0  0.8719128999604174  0.5895459862859049  0.32082772220910893  1.0000
  C   C13       1.0  0.22468037601314678  0.1858813772407832  0.16982722405549444  1.0000
  C   C14       1.0  0.2753196232619689  0.8141186228548657  0.669827224094399  1.0000
  C   C15       1.0  0.7246803771001074  0.3141186231412727  0.8301727756206897  1.0000
  C   C16       1.0  0.7753196225370845  0.6858813769543762  0.33017277558178515  1.0000
  C   C17       1.0  0.4175541085930778  0.280413686459928  0.09890146119657654  1.0000
  C   C18       1.0  0.08244589249388277  0.719586313635721  0.598901461235481  1.0000
  C   C19       1.0  0.9175541078681935  0.2195863132536651  0.9010985388812325  1.0000
  C   C20       1.0  0.5824458917689984  0.780413686173521  0.401098538842328  1.0000
  C   C21       1.0  0.19082148305662852  0.3345474696840575  0.08858615541517992  1.0000
  C   C22       1.0  0.30917851803033203  0.6654525304115915  0.5885861550524595  1.0000
  C   C23       1.0  0.6908214823317442  0.16545253002953558  0.9114138446626292  1.0000
  C   C24       1.0  0.8091785173054477  0.8345474700661134  0.41141384462372466  1.0000
  C   C25       1.0  0.01245241672266455  0.32210137703735087  0.1332732157633263  1.0000
  C   C26       1.0  0.48754758436429596  0.6778986230582981  0.6332732158022308  1.0000
  C   C27       1.0  0.5124524159977802  0.177898623344705  0.8667267843144828  1.0000
  C   C28       1.0  0.9875475836394118  0.822101376750944  0.36672678427557825  1.0000
  C   C29       1.0  0.02997752804300705  0.2586274313000262  0.17134443182727846  1.0000
  C   C30       1.0  0.4700224712321086  0.7413725687956227  0.671344431866183  1.0000
  C   C31       1.0  0.5299775273181228  0.24137256908202967  0.8286555682505305  1.0000
  C   C32       1.0  0.9700224723190691  0.7586274310136192  0.32865556821162606  1.0000
  C   C33       1.0  0.8594610340385979  0.2532108037805291  0.21651632418950098  1.0000
  C   C34       1.0  0.6405389655985941  0.7467891963151199  0.7165163242284056  1.0000
  C   C35       1.0  0.3594610347634821  0.24678919660152673  0.7834836754866832  1.0000
  C   C36       1.0  0.14053896632347845  0.7532108034941223  0.2834836754477786  1.0000
  C   C37       1.0  0.7114697648958939  0.32135619276738636  0.23699858031115267  1.0000
  C   C38       1.0  0.788530234741298  0.6786438073282627  0.7369985803500572  1.0000
  C   C39       1.0  0.21146976380893326  0.17864380694620674  0.7630014197666564  1.0000
  C   C40       1.0  0.2885302354661824  0.8213561931494423  0.2630014197277519  1.0000
  C   C41       1.0  0.5518881294608692  0.30374642159482684  0.28001889265273805  1.0000
  C   C42       1.0  0.9481118701763227  0.6962535785008221  0.7800188926916426  1.0000
  C   C43       1.0  0.0518881283739086  0.19625357811876626  0.719981107425071  1.0000
  C   C44       1.0  0.4481118709012071  0.8037464213084199  0.21998110738616652  1.0000
  C   C45       1.0  0.5306586704722572  0.21942899922601947  0.30390814577002295  1.0000
  C   C46       1.0  0.9693413291649347  0.7805710008696295  0.8039081458089276  1.0000
  C   C47       1.0  0.03065867119714152  0.2805710011560364  0.6960918539061611  1.0000
  C   C48       1.0  0.469341329889819  0.7194289989396125  0.19609185426888157  1.0000
  C   C49       1.0  0.6759911405914301  0.150655534633867  0.2833145664383956  1.0000
  C   C50       1.0  0.8240088590457618  0.849344465461782  0.7833145664773  1.0000
  C   C51       1.0  0.17599113950446948  0.3493444650797261  0.7166854336394135  1.0000
  C   C52       1.0  0.32400885977064614  0.65065553434746  0.21668543360050896  1.0000
  C   C53       1.0  0.8385704752001469  0.16888938868347622  0.24065227463590963  1.0000
  C   C54       1.0  0.6614295262488898  0.8311106114121728  0.7406522746748142  1.0000
  C   C55       1.0  0.3385704741131863  0.33111061103011685  0.7593477254418994  1.0000
  C   C56       1.0  0.16142952516192938  0.6688893883970692  0.2593477254029949  1.0000
  C   C57       1.0  0.5783850581841165  0.1302702230672163  0.11508309594833321  1.0000
  C   C58       1.0  0.9216149414530755  0.8697297770284327  0.6150830959872378  1.0000
  C   C59       1.0  0.07838505890900073  0.3697297773148396  0.8849169041294759  1.0000
  C   C60       1.0  0.4216149421779598  0.6302702227808095  0.38491690409057133  1.0000
  C   C61       1.0  0.2489617083375054  0.43487272824581924  0.08829564923692118  1.0000
  C   C62       1.0  0.25103829274945516  0.5651272718498298  0.5882956492758258  1.0000
  C   C63       1.0  0.7489617076126212  0.06512727146777386  0.9117043508408879  1.0000
  C   C64       1.0  0.7510382920245708  0.9348727286278752  0.41170435080198337  1.0000
  C   C65       1.0  0.8652370034756776  0.6095529218432816  0.10066563458295834  1.0000
  C   C66       1.0  0.6347629961615143  0.3904470782523674  0.600665634621863  1.0000
  C   C67       1.0  0.3652370023887171  0.8904470786344233  0.8993343654948508  1.0000
  C   C68       1.0  0.13476299688639862  0.1095529214612257  0.39933436545594625  1.0000
  C   C69       1.0  0.07169789637276752  0.5820934564065113  0.06338682657543897  1.0000
  C   C70       1.0  0.42830210471419305  0.4179065436891376  0.5633868266143436  1.0000
  C   C71       1.0  0.5716978956478832  0.9179065440711935  0.9366131735023702  1.0000
  C   C72       1.0  0.9283021039893088  0.08209345602445547  0.4366131734634656  1.0000
  C   C73       1.0  0.038381350192986156  0.6186083385932936  0.006402948916673971  1.0000
  C   C74       1.0  0.4616186508939744  0.38139166150235543  0.5064029489555785  1.0000
  C   C75       1.0  0.5383813494681018  0.8813916612159486  0.9935970507595101  1.0000
  C   C76       1.0  0.96161865016909  0.1186083388797004  0.49359705112223057  1.0000
  C   C77       1.0  0.26661968586693763  0.6096736562501246  0.9723026647877094  1.0000
  C   C78       1.0  0.23338031340817803  0.39032634384552434  0.4723026647488049  1.0000
  C   C79       1.0  0.7666196851420534  0.8903263435591176  0.0276973348884747  1.0000
  C   C80       1.0  0.7333803144951386  0.10967365586806874  0.5276973349273792  1.0000
  C   C81       1.0  0.23068938856299517  0.6337815956504308  0.9132906204344879  1.0000
  C   C82       1.0  0.26931061071212054  0.36621840444521814  0.41329062039558334  1.0000
  C   C83       1.0  0.7306893896499557  0.866218404827274  0.0867093796433212  1.0000
  C   C84       1.0  0.7693106099872362  0.133781595268375  0.5867093796822257  1.0000
  C   C85       1.0  0.4708300974658038  0.636997227212434  0.8828289065613101  1.0000
  C   C86       1.0  0.029169901809311866  0.36300277221475225  0.3828289065224054  1.0000
  C   C87       1.0  0.9708300985527643  0.8630027725968081  0.11717109351649911  1.0000
  C   C88       1.0  0.5291699010844275  0.13699722749884088  0.6171710935554037  1.0000
  N   N1        1.0  0.6954303120257138  0.06036177684059275  0.29377710511916744  1.0000
  N   N2        1.0  0.8045696876114781  0.9396382232550563  0.793777105158072  1.0000
  N   N3        1.0  0.1954303127505982  0.43963822354146315  0.7062228945570166  1.0000
  N   N4        1.0  0.3045696883363624  0.5603617765541858  0.20622289451811213  1.0000
  N   N5        1.0  0.35636805610283473  0.18782590207419173  0.1169609300019645  1.0000
  N   N6        1.0  0.14363194498412582  0.8121740980214572  0.6169609296392441  1.0000
  N   N7        1.0  0.8563680553779504  0.31217409763940135  0.8830390700758446  1.0000
  N   N8        1.0  0.6436319442592414  0.6878259024562475  0.38303907003694004  1.0000
  N   N9        1.0  0.08884298047590965  0.484521602093545  0.06125739858115787  1.0000
  N   N10       1.0  0.411157018799206  0.5154783973336412  0.5612573986200624  1.0000
  N   N11       1.0  0.5888429815628702  0.015478397620048113  0.9387426014966511  1.0000
  N   N12       1.0  0.9111570180743216  0.9845216024756008  0.4387426014577467  1.0000
  O   O1        1.0  0.4204417037649675  0.4651012265914185  0.11588910664057452  1.0000
  O   O2        1.0  0.07955829732199307  0.5348987735042304  0.615889106679479  1.0000
  O   O3        1.0  0.9204417030400831  0.0348987731221746  0.8841108934372346  1.0000
  O   O4        1.0  0.5795582965971088  0.9651012263050116  0.38411089339833004  1.0000
  Br  Br1       1.0  0.12531268574418594  0.10590739145193492  0.015429407264560017  1.0000
  Br  Br2       1.0  0.37468731353092977  0.8940926086437141  0.5154294073034645  1.0000
  Br  Br3       1.0  0.6253126850193016  0.3940926082616582  0.984570592411624  1.0000
  Br  Br4       1.0  0.8746873146178903  0.605907391165528  0.4845705927743445  1.0000
