data_image0
_chemical_formula_structural       H44C60N20S12
_chemical_formula_sum              "H44 C60 N20 S12"
_cell_length_a       15.535950880318785
_cell_length_b       12.988115151652455
_cell_length_c       7.814187320544834
_cell_angle_alpha    90.0
_cell_angle_beta     103.02979523242259
_cell_angle_gamma    90.0

_space_group_name_H-M_alt    "P 1"
_space_group_IT_number       1

loop_
  _space_group_symop_operation_xyz
  'x, y, z'

loop_
  _atom_site_type_symbol
  _atom_site_label
  _atom_site_symmetry_multiplicity
  _atom_site_fract_x
  _atom_site_fract_y
  _atom_site_fract_z
  _atom_site_occupancy
  H   H1        1.0  0.045457913330857774  0.21733851348252467  0.7760055775115153  1.0000
  H   H2        1.0  0.9545420867184102  0.7173385130339432  0.7239944220949583  1.0000
  H   H3        1.0  0.9545420865826311  0.7826614863902472  0.22399442128291222  1.0000
  H   H4        1.0  0.04545791319743522  0.2826614868388286  0.276005577980241  1.0000
  H   H5        1.0  0.8275366971025077  0.3848323557066772  0.5018118314532453  1.0000
  H   H6        1.0  0.17246330294676032  0.8848323552580957  0.9981881681532283  1.0000
  H   H7        1.0  0.17246330281333774  0.6151676441660947  0.49818816862195414  1.0000
  H   H8        1.0  0.8275366976297598  0.11516764461467612  0.0018118322135528434  1.0000
  H   H9        1.0  0.04102774185490828  0.5328510287437271  0.8240673331223944  1.0000
  H   H10       1.0  0.9589722581943598  0.03285102842237391  0.6759326664840792  1.0000
  H   H11       1.0  0.9589722580585806  0.4671489711290447  0.17593266567203303  1.0000
  H   H12       1.0  0.041027741721485725  0.9671489714503979  0.32406733359112017  1.0000
  H   H13       1.0  0.7852457023183501  0.046126900093257754  0.6933453199445465  1.0000
  H   H14       1.0  0.21475429773091784  0.5461268996446763  0.8066546796619272  1.0000
  H   H15       1.0  0.21475429759749531  0.9538731005494488  0.30665468013065283  1.0000
  H   H16       1.0  0.785245702182571  0.4538731002280955  0.19334531913250044  1.0000
  H   H17       1.0  0.6394730419040581  0.01430890994035845  0.48601522992346  1.0000
  H   H18       1.0  0.3605269578760081  0.5143089102617117  0.013984769339693288  1.0000
  H   H19       1.0  0.3605269580117873  0.9856910899324134  0.5139847701517394  1.0000
  H   H20       1.0  0.6394730420398372  0.4856910896110601  0.986015230735506  1.0000
  H   H21       1.0  0.5001485326962213  0.05526316032920914  0.592733600897893  1.0000
  H   H22       1.0  0.4998514673530467  0.5552631606505624  0.9072663987085806  1.0000
  H   H23       1.0  0.49985146721962415  0.9447368395435628  0.4072663991773064  1.0000
  H   H24       1.0  0.5001485325627987  0.44473683999214414  0.09273360136661869  1.0000
  H   H25       1.0  0.27888806072768224  0.10471033049217854  0.788086619250657  1.0000
  H   H26       1.0  0.7211119393215857  0.6047103308135318  0.7119133803558165  1.0000
  H   H27       1.0  0.7211119398488378  0.8952896693805934  0.21191338111612418  1.0000
  H   H28       1.0  0.2788880605942597  0.39528966905924007  0.28808661971938276  1.0000
  H   H29       1.0  0.2867891289940525  0.1714365128427976  0.08951085355878996  1.0000
  H   H30       1.0  0.7132108707860138  0.6714365131641509  0.41048914570436335  1.0000
  H   H31       1.0  0.7132108709217929  0.8285634870299743  0.9104891465164093  1.0000
  H   H32       1.0  0.28678912912747506  0.32856348670862096  0.5895108530900642  1.0000
  H   H33       1.0  0.4357278177175904  0.1970989085105473  0.2918151852658604  1.0000
  H   H34       1.0  0.5642721820648324  0.6970989080619658  0.20818481527806468  1.0000
  H   H35       1.0  0.564272182198255  0.8029010921321592  0.7081848148093389  1.0000
  H   H36       1.0  0.43572781785101294  0.30290109181080593  0.7918151847971346  1.0000
  H   H37       1.0  0.6009391769945079  0.19186001516801768  0.3351177879025154  1.0000
  H   H38       1.0  0.3990608234462329  0.6918600154893709  0.16488221165221967  1.0000
  H   H39       1.0  0.39906082292133743  0.8081399847047542  0.6648822121726838  1.0000
  H   H40       1.0  0.6009391764696125  0.30813998438340096  0.8351177884229797  1.0000
  H   H41       1.0  0.7330880673226863  0.16408524756025564  0.21424455630844436  1.0000
  H   H42       1.0  0.2669119324597366  0.6640852478816088  0.2857554442354807  1.0000
  H   H43       1.0  0.26691193259315915  0.8359147523125161  0.785755443766755  1.0000
  H   H44       1.0  0.7330880674561089  0.33591475276109767  0.7142445558397187  1.0000
  C   C1        1.0  0.057062699707008155  0.37432733951249586  0.8196249391540351  1.0000
  C   C2        1.0  0.9429373003446165  0.8743273398338491  0.6803750617332104  1.0000
  C   C3        1.0  0.9429373002088374  0.625672660360276  0.18037506092116432  1.0000
  C   C4        1.0  0.057062699571228954  0.12567266003892272  0.319624938341989  1.0000
  C   C5        1.0  0.934355456872551  0.2870045496575181  0.624881558812047  1.0000
  C   C6        1.0  0.06564454317671697  0.7870045492089367  0.8751184407944266  1.0000
  C   C7        1.0  0.06564454304093777  0.7129954502152537  0.37511843998238054  1.0000
  C   C8        1.0  0.9343554567391285  0.21299545066383513  0.1248815592807727  1.0000
  C   C9        1.0  0.9335911083901697  0.4720362761197095  0.6483964173911672  1.0000
  C   C10       1.0  0.0664088916590982  0.9720362764410628  0.8516035822153063  1.0000
  C   C11       1.0  0.06640889152567565  0.5279637237530623  0.3516035826840322  1.0000
  C   C12       1.0  0.9335911082567472  0.02796372420164378  0.14839641785989294  1.0000
  C   C13       1.0  0.7236580653882487  0.062392509655020974  0.733067445203998  1.0000
  C   C14       1.0  0.2763419346610192  0.5623925099763742  0.7669325544024757  1.0000
  C   C15       1.0  0.27634193452759664  0.9376074902177509  0.26693255487120143  1.0000
  C   C16       1.0  0.7236580652548262  0.43760748989639764  0.2330674456727237  1.0000
  C   C17       1.0  0.6418571601891813  0.044492661425663285  0.6172912453814405  1.0000
  C   C18       1.0  0.3581428398600867  0.5444926617470165  0.882708754225033  1.0000
  C   C19       1.0  0.35814283972666416  0.9555073384471086  0.3827087546937588  1.0000
  C   C20       1.0  0.6418571600557588  0.45550733889568995  0.11729124585016626  1.0000
  C   C21       1.0  0.56594830105653  0.0651491744660382  0.6755135614635723  1.0000
  C   C22       1.0  0.43405169899273793  0.5651491747873915  0.8244864381429012  1.0000
  C   C23       1.0  0.4340516988593154  0.9348508254067336  0.32448643861162696  1.0000
  C   C24       1.0  0.5659483009231076  0.43485082585531504  0.1755135619322981  1.0000
  C   C25       1.0  0.5720721173815908  0.09937377709773304  0.848293547924231  1.0000
  C   C26       1.0  0.4279278826676771  0.5993737766491516  0.6517064516822426  1.0000
  C   C27       1.0  0.4279278825342546  0.9006262227750388  0.15170645215096837  1.0000
  C   C28       1.0  0.5720721172481683  0.40062622322362024  0.34829354839295673  1.0000
  C   C29       1.0  0.49475987374691943  0.11759266315141068  0.9175378499785309  1.0000
  C   C30       1.0  0.5052401263023486  0.6175926627028293  0.5824621496279427  1.0000
  C   C31       1.0  0.5052401261665693  0.8824073367213612  0.08246214881589656  1.0000
  C   C32       1.0  0.4947598736134968  0.3824073371699426  0.4175378504472567  1.0000
  C   C33       1.0  0.3433248333728146  0.11974544665182817  0.8754011075137323  1.0000
  C   C34       1.0  0.6566751666764534  0.6197454469731815  0.6245988920927413  1.0000
  C   C35       1.0  0.6566751665406743  0.8802545532209436  0.12459889128069519  1.0000
  C   C36       1.0  0.34332483323939206  0.3802545528995904  0.3754011079824581  1.0000
  C   C37       1.0  0.34759240857725043  0.15679416499020682  0.04647498789088368  1.0000
  C   C38       1.0  0.6524075912028157  0.6567941645416254  0.4535250113722696  1.0000
  C   C39       1.0  0.6524075913385949  0.8432058348825651  0.9535250121843157  1.0000
  C   C40       1.0  0.34759240871302965  0.34320583533114646  0.5464749887029299  1.0000
  C   C41       1.0  0.4295533985598381  0.17148642770668895  0.1569105666922527  1.0000
  C   C42       1.0  0.5704466012225847  0.6714864272581076  0.3430894338516724  1.0000
  C   C43       1.0  0.5704466013560073  0.8285135729360176  0.8430894333829466  1.0000
  C   C44       1.0  0.42955339869326065  0.3285135726146643  0.6569105662235271  1.0000
  C   C45       1.0  0.5063926116870621  0.15277222266908766  0.09395333148540043  1.0000
  C   C46       1.0  0.49360738809300414  0.6527722222205062  0.40604666777775283  1.0000
  C   C47       1.0  0.49360738822878336  0.8472277772036841  0.9060466685897989  1.0000
  C   C48       1.0  0.5063926118228413  0.3472277776522656  0.5939533322974466  1.0000
  C   C49       1.0  0.5936769588835278  0.1675344970839096  0.19924189402363754  1.0000
  C   C50       1.0  0.40632304089889504  0.6675344974052628  0.30075810652028756  1.0000
  C   C51       1.0  0.4063230410323176  0.8324655027888623  0.800758106051562  1.0000
  C   C52       1.0  0.5936769590169503  0.332465502467509  0.6992418935549117  1.0000
  C   C53       1.0  0.6668910418180624  0.15171225439507305  0.133323442475863  1.0000
  C   C54       1.0  0.3331089579620038  0.6517122539464917  0.36667655678729016  1.0000
  C   C55       1.0  0.333108958097783  0.8482877454776988  0.8666765575993363  1.0000
  C   C56       1.0  0.666891041951485  0.3482877459262802  0.6333234420071373  1.0000
  C   C57       1.0  0.65751353348881  0.11662199882846647  0.9566214396086894  1.0000
  C   C58       1.0  0.3424864665628146  0.6166219983798851  0.5433785612785561  1.0000
  C   C59       1.0  0.3424864664270354  0.8833780010443054  0.04337856046650998  1.0000
  C   C60       1.0  0.6575135333530309  0.3833780014928868  0.45662143879664324  1.0000
  N   N1        1.0  0.015529707528428126  0.2880971693205178  0.7381591700596973  1.0000
  N   N2        1.0  0.98447029252084  0.788097169641871  0.7618408295467763  1.0000
  N   N3        1.0  0.9844702923874172  0.711902830552254  0.26184083001550207  1.0000
  N   N4        1.0  0.015529707395005568  0.21190283023090078  0.238159170528423  1.0000
  N   N5        1.0  0.8961279923035618  0.38089776786207385  0.5823795868424408  1.0000
  N   N6        1.0  0.10387200774570615  0.880897768183427  0.9176204127640327  1.0000
  N   N7        1.0  0.10387200761228359  0.619102232010698  0.41762041323275845  1.0000
  N   N8        1.0  0.8961279921677826  0.11910223168934479  0.08237958603039477  1.0000
  N   N9        1.0  0.012255216303539342  0.464792076410868  0.769719169984208  1.0000
  N   N10       1.0  0.9877447837457286  0.9647920759622867  0.7302808296222656  1.0000
  N   N11       1.0  0.9877447842729807  0.5352079234619038  0.23028083038257324  1.0000
  N   N12       1.0  0.012255216170116786  0.03520792391048524  0.2697191704529337  1.0000
  N   N13       1.0  0.4140781429546766  0.09997954397831069  0.8116337840880623  1.0000
  N   N14       1.0  0.5859218570945914  0.5999795442996639  0.6883662155184112  1.0000
  N   N15       1.0  0.5859218569611687  0.9000204558944612  0.18836621598713693  1.0000
  N   N16       1.0  0.4140781428212541  0.4000204555731079  0.3116337845567882  1.0000
  N   N17       1.0  0.7312641365980156  0.09897312234997019  0.8946225876473273  1.0000
  N   N18       1.0  0.2687358634512524  0.5989731226713235  0.6053774119591463  1.0000
  N   N19       1.0  0.2687358639785046  0.9010268775228018  0.10537741271945385  1.0000
  N   N20       1.0  0.731264136464593  0.4010268772014484  0.39462258811605305  1.0000
  S   S1        1.0  0.15240015403736565  0.3694052365550189  0.9639837557598842  1.0000
  S   S2        1.0  0.8475998460142591  0.8694052361064375  0.5360162451273615  1.0000
  S   S3        1.0  0.8475998458784798  0.6305947633177529  0.036016244315315256  1.0000
  S   S4        1.0  0.15240015390158645  0.13059476376633433  0.46398375494783795  1.0000
  S   S5        1.0  0.8857469546060703  0.5843190048276127  0.5837501095178546  1.0000
  S   S6        1.0  0.11425304544319774  0.08431900450625945  0.9162498900886191  1.0000
  S   S7        1.0  0.11425304530977519  0.41568099504515915  0.41624989055734485  1.0000
  S   S8        1.0  0.8857469544726476  0.9156809953665124  0.08375010998658015  1.0000
  S   S9        1.0  0.8850778599529632  0.177977329505421  0.5429003875758875  1.0000
  S   S10       1.0  0.11492214009866149  0.6779773290568396  0.9570996133113581  1.0000
  S   S11       1.0  0.1149221399628823  0.8220226703673508  0.4570996124993119  1.0000
  S   S12       1.0  0.885077859817184  0.3220226708159323  0.0429003867638414  1.0000
