data_image0
_chemical_formula_structural       H22C14N22O10S2
_chemical_formula_sum              "H22 C14 N22 O10 S2"
_cell_length_a       5.09976953127913
_cell_length_b       11.055263610479718
_cell_length_c       12.550954940180533
_cell_angle_alpha    99.1046627081779
_cell_angle_beta     94.93163960405272
_cell_angle_gamma    101.73774009812401

_space_group_name_H-M_alt    "P 1"
_space_group_IT_number       1

loop_
  _space_group_symop_operation_xyz
  'x, y, z'

loop_
  _atom_site_type_symbol
  _atom_site_label
  _atom_site_symmetry_multiplicity
  _atom_site_fract_x
  _atom_site_fract_y
  _atom_site_fract_z
  _atom_site_occupancy
  H   H1        1.0  0.3909819661640826  0.11241016588923601  0.05354647490734046  1.0000
  H   H2        1.0  0.6090180325294294  0.8875898335513606  0.946453525470065  1.0000
  H   H3        1.0  0.6007057062945721  0.22053501956254237  0.1664796038182783  1.0000
  H   H4        1.0  0.3992942943599898  0.7794649798777049  0.833520396560712  1.0000
  H   H5        1.0  0.7532314404117926  0.13421577958458553  0.06448004644686361  1.0000
  H   H6        1.0  0.24676855845018733  0.8657842206147113  0.9355199531205407  1.0000
  H   H7        1.0  0.2620216666129124  0.42324989634000343  0.998885134326766  1.0000
  H   H8        1.0  0.7379783320805996  0.5767501031005932  0.0011148660506393997  1.0000
  H   H9        1.0  0.34927614421464215  0.39389043908049276  0.13417519661531896  1.0000
  H   H10       1.0  0.6507238566083878  0.6061095611184549  0.8658248029536703  1.0000
  H   H11       1.0  0.14104050295657383  0.2708232673137014  0.032305064217259094  1.0000
  H   H12       1.0  0.8589594961466986  0.7291767330513795  0.967694936163152  1.0000
  H   H13       1.0  0.6225854608254958  0.3856237852982955  0.48244284981145874  1.0000
  H   H14       1.0  0.37741453762672367  0.6143762139765171  0.51755714975294  1.0000
  H   H15       1.0  0.5441733842606647  0.03300596214549427  0.4177274274407194  1.0000
  H   H16       1.0  0.45582661656236517  0.9669940380534534  0.5822725721282698  1.0000
  H   H17       1.0  0.7341916187399393  0.11670097077465767  0.33072024441330844  1.0000
  H   H18       1.0  0.2658083801220407  0.8832990294246392  0.6692797551540959  1.0000
  H   H19       1.0  0.2649949622202337  0.17606973521446107  0.8213584408836724  1.0000
  H   H20       1.0  0.7350050364732782  0.8239302642261354  0.17864155949373298  1.0000
  H   H21       1.0  0.6596661592304613  0.3287959719746479  0.7830770979922903  1.0000
  H   H22       1.0  0.3403338398728113  0.6712040283904331  0.2169229023881208  1.0000
  C   C1        1.0  0.5844706876946979  0.17915147999558623  0.0801629880513411  1.0000
  C   C2        1.0  0.4155293133696246  0.8208485203691455  0.919837012330655  1.0000
  C   C3        1.0  0.3069025062088653  0.3539326822233265  0.047146732594721075  1.0000
  C   C4        1.0  0.6930974924846466  0.64606731721727  0.9528532677826843  1.0000
  C   C5        1.0  0.15875117460217084  0.2271950823237837  0.4668827898423034  1.0000
  C   C6        1.0  0.8412488242598092  0.7728049178755133  0.533117209725101  1.0000
  C   C7        1.0  0.7903589520771711  0.4105974493312794  0.6433016437074378  1.0000
  C   C8        1.0  0.2096410470261013  0.5894025510338016  0.3566983566729733  1.0000
  C   C9        1.0  0.9159332659720107  0.14334612957802234  0.484301188414574  1.0000
  C   C10       1.0  0.0840667348510192  0.8566538706209254  0.5156988111544153  1.0000
  C   C11       1.0  0.35672929986123025  0.27713155590507826  0.5600565601560902  1.0000
  C   C12       1.0  0.6432707012030924  0.7228684444596535  0.4399434402259058  1.0000
  C   C13       1.0  0.08588144601485678  0.1604160361694994  0.6609913897449429  1.0000
  C   C14       1.0  0.9141185548081732  0.8395839640294483  0.3390086098240464  1.0000
  N   N1        1.0  0.31698046871909885  0.24154768746125624  0.6550310157080532  1.0000
  N   N2        1.0  0.6830195321039311  0.7584523127376914  0.34496898386093594  1.0000
  N   N3        1.0  0.8820697380318837  0.11055582679281242  0.5829485918087656  1.0000
  N   N4        1.0  0.11793026238138565  0.889444172481651  0.417051407757218  1.0000
  N   N5        1.0  0.5915607231002469  0.3610951206817483  0.5570557109369535  1.0000
  N   N6        1.0  0.40843927576173317  0.6389048795175487  0.4429442886304509  1.0000
  N   N7        1.0  0.7962678670942293  0.38628817634593854  0.7454861151858879  1.0000
  N   N8        1.0  0.20373213176775068  0.6137118238533583  0.2545138843815164  1.0000
  N   N9        1.0  0.713203063022617  0.09409832740212233  0.4055591051760033  1.0000
  N   N10       1.0  0.2867969378004131  0.9059016727968255  0.594440894392986  1.0000
  N   N11       1.0  0.8930120972370271  0.05848421787343672  0.8079680004051673  1.0000
  N   N12       1.0  0.10698790341753484  0.9415157815668105  0.19203199997382306  1.0000
  N   N13       1.0  0.031746891108755095  0.45294285164840403  0.8027771137061618  1.0000
  N   N14       1.0  0.9682531099555673  0.5470571487163277  0.1972228866758342  1.0000
  N   N15       1.0  0.01945572311858062  0.49187579032802975  0.6362951296536588  1.0000
  N   N16       1.0  0.9805442775359813  0.5081242091122176  0.3637048707253316  1.0000
  N   N17       1.0  0.0882081490545338  0.1333987874723262  0.7650948692806843  1.0000
  N   N18       1.0  0.9117918498074462  0.8666012127269708  0.23490513028672  1.0000
  N   N19       1.0  0.1997122630335622  0.25665851757408153  0.3632655696707354  1.0000
  N   N20       1.0  0.8002877376209997  0.7433414818661657  0.6367344307082549  1.0000
  N   N21       1.0  0.16193849458440493  0.5155784589475754  0.7368862064950182  1.0000
  N   N22       1.0  0.8380615064799175  0.48442154141715627  0.26311379388697775  1.0000
  O   O1        1.0  0.5437932132230429  0.24788116957210504  0.8860875249562057  1.0000
  O   O2        1.0  0.4562067878412797  0.7521188307926266  0.11391247542579042  1.0000
  O   O3        1.0  0.9571303595715381  0.0495895686414437  0.903882624754927  1.0000
  O   O4        1.0  0.04286963929044177  0.9504104315578533  0.09611737481247738  1.0000
  O   O5        1.0  0.02403610839987087  0.20900155839401946  0.28281205472017473  1.0000
  O   O6        1.0  0.9759638926644516  0.7909984419707122  0.7171879456618212  1.0000
  O   O7        1.0  0.4152657973747215  0.3298697872267391  0.35208838731831105  1.0000
  O   O8        1.0  0.5847342013187904  0.6701302122138574  0.6479116130590944  1.0000
  O   O9        1.0  0.6759175325937278  0.006733402708785751  0.7528422425350833  1.0000
  O   O10       1.0  0.3240824680608342  0.9932665967314616  0.24715775784390712  1.0000
  S   S1        1.0  0.6062220721175273  0.3069927796129774  0.007569994942486408  1.0000
  S   S2        1.0  0.3937779282957421  0.6930072196614858  0.9924300046234972  1.0000
