data_image0
_chemical_formula_structural       H96C108N8O16S8
_chemical_formula_sum              "H96 C108 N8 O16 S8"
_cell_length_a       20.98689371766243
_cell_length_b       8.99613611839803
_cell_length_c       13.028447854036411
_cell_angle_alpha    90.0
_cell_angle_beta     100.39770384926173
_cell_angle_gamma    90.0

_space_group_name_H-M_alt    "P 1"
_space_group_IT_number       1

loop_
  _space_group_symop_operation_xyz
  'x, y, z'

loop_
  _atom_site_type_symbol
  _atom_site_label
  _atom_site_symmetry_multiplicity
  _atom_site_fract_x
  _atom_site_fract_y
  _atom_site_fract_z
  _atom_site_occupancy
  H   H1        1.0  0.010492128095857213  0.28910266205077534  0.43126126126223496  1.0000
  H   H2        1.0  0.9895078718642916  0.7891026621398118  0.06873873872399001  1.0000
  H   H3        1.0  0.989507871783279  0.7108973381272976  0.5687387387389513  1.0000
  H   H4        1.0  0.010492128499286126  0.21089733803826113  0.9312612614160871  1.0000
  H   H5        1.0  0.4834453084731395  0.7205076117894746  0.3269815926154074  1.0000
  H   H6        1.0  0.5165546914870094  0.22050761170043814  0.17301840737081764  1.0000
  H   H7        1.0  0.5165546914047667  0.27949238838859836  0.6730184066178726  1.0000
  H   H8        1.0  0.48344530839212696  0.7794923884776348  0.8269815926303687  1.0000
  H   H9        1.0  0.729792151181349  0.3873037662107372  0.5867280737935656  1.0000
  H   H10       1.0  0.2702078490999862  0.8873037662997737  0.9132719255935667  1.0000
  H   H11       1.0  0.2702078486965573  0.6126962339673357  0.41327192543971447  1.0000
  H   H12       1.0  0.7297921512635914  0.11269623387829927  0.08672807454651055  1.0000
  H   H13       1.0  0.7615974167692273  0.20748589232466905  0.7301481295330243  1.0000
  H   H14       1.0  0.23840258351333773  0.7074858924137055  0.7698518706220141  1.0000
  H   H15       1.0  0.23840258359435032  0.7925141067418155  0.2698518706070529  1.0000
  H   H16       1.0  0.76159741685024  0.2925141066527791  0.23014812951806302  1.0000
  H   H17       1.0  0.8707071309414103  0.08975494471995435  0.7590410629780491  1.0000
  H   H18       1.0  0.12929286885671334  0.5897549448089908  0.7409589370380986  1.0000
  H   H19       1.0  0.1292928689377259  0.9102450554581186  0.24095893702313725  1.0000
  H   H20       1.0  0.8707071310224229  0.4102450553690821  0.2590410629630877  1.0000
  H   H21       1.0  0.946982144905986  0.15073594954024264  0.6376522890677122  1.0000
  H   H22       1.0  0.0530178548921378  0.6507359496292792  0.8623477109484353  1.0000
  H   H23       1.0  0.053017854973150376  0.8492640506378303  0.362347710933474  1.0000
  H   H24       1.0  0.9469821449869984  0.34926405054879384  0.13765228905275093  1.0000
  H   H25       1.0  0.7882723940532377  0.6861880666051162  0.5758711759052874  1.0000
  H   H26       1.0  0.21172760574488592  0.18618806651607972  0.9241288241108603  1.0000
  H   H27       1.0  0.21172760582589847  0.3138119324613684  0.42412882409589897  1.0000
  H   H28       1.0  0.7882723941342503  0.8138119325504048  0.07587117589032603  1.0000
  H   H29       1.0  0.7726692168295516  0.9071415230490324  0.6808463059845875  1.0000
  H   H30       1.0  0.22733078345301364  0.4071415240715842  0.8191536941704509  1.0000
  H   H31       1.0  0.22733078353402622  0.0928584760174523  0.31915369415548966  1.0000
  H   H32       1.0  0.7726692169105641  0.5928584761064888  0.18084630596962623  1.0000
  H   H33       1.0  0.6656581259007265  0.03624374350374562  0.6556884048457032  1.0000
  H   H34       1.0  0.3343418743818387  0.5362437435927822  0.8443115953093352  1.0000
  H   H35       1.0  0.3343418744628513  0.9637562566743274  0.34431159529437394  1.0000
  H   H36       1.0  0.6656581254972975  0.46375625658529085  0.15568840469185102  1.0000
  H   H37       1.0  0.5740997709319436  0.9377456675813658  0.523207558293233  1.0000
  H   H38       1.0  0.42590022886617995  0.43774566749232946  0.9767924417229146  1.0000
  H   H39       1.0  0.4259002289471926  0.062254332596707034  0.4767924417079534  1.0000
  H   H40       1.0  0.5740997710129563  0.5622543326857434  0.023207558278271645  1.0000
  H   H41       1.0  0.09222970014235586  0.4849468596943451  0.017449280880713198  1.0000
  H   H42       1.0  0.9077703003022344  0.9849468597833815  0.4825507192444027  1.0000
  H   H43       1.0  0.9077703002212218  0.5150531404837279  0.9825507192593639  1.0000
  H   H44       1.0  0.0922297000613433  0.015053140394691432  0.5174492808956745  1.0000
  H   H45       1.0  0.13674783849639058  0.3156359644439928  0.03401106326497455  1.0000
  H   H46       1.0  0.8632521614637583  0.8156359645330292  0.4659889367212504  1.0000
  H   H47       1.0  0.8632521613827455  0.6843640357340802  0.9659889367362117  1.0000
  H   H48       1.0  0.13674783889981948  0.18436403564504372  0.5340110634188268  1.0000
  H   H49       1.0  0.20735122127221609  0.5340195420315053  0.023666555585629412  1.0000
  H   H50       1.0  0.7926487786879327  0.03401954194246876  0.4763334444005956  1.0000
  H   H51       1.0  0.7926487790913616  0.4659804581465677  0.9763334445544478  1.0000
  H   H52       1.0  0.20735122119120358  0.9659804582356041  0.5236665556005907  1.0000
  H   H53       1.0  0.18084590241096524  0.6178536014626002  0.1311494974235437  1.0000
  H   H54       1.0  0.819154098033625  0.11785360137356367  0.3688505027015722  1.0000
  H   H55       1.0  0.8191540979526124  0.3821463987154728  0.8688505027165335  1.0000
  H   H56       1.0  0.18084590232995265  0.8821463988045093  0.6311494974385049  1.0000
  H   H57       1.0  0.2259566334547567  0.4058624204821591  0.2459774404327388  1.0000
  H   H58       1.0  0.7740433665053921  0.9058624205711956  0.2540225595534862  1.0000
  H   H59       1.0  0.7740433664243795  0.5941375785843256  0.7540225595684474  1.0000
  H   H60       1.0  0.22595663337374408  0.0941375784952891  0.7459774404477  1.0000
  H   H61       1.0  0.2509664585215605  0.316897800620169  0.14099884979502103  1.0000
  H   H62       1.0  0.7490335414385882  0.8168978007092054  0.359001150191204  1.0000
  H   H63       1.0  0.7490335413575757  0.683102199557904  0.8590011502061653  1.0000
  H   H64       1.0  0.250966458440548  0.18310219946886752  0.6409988498099825  1.0000
  H   H65       1.0  0.007572547780172832  0.5347018960909826  0.3336020718322756  1.0000
  H   H66       1.0  0.992427452179976  0.03470189600194615  0.16639792815394938  1.0000
  H   H67       1.0  0.9924274520989633  0.4652981040870904  0.6663979281689106  1.0000
  H   H68       1.0  0.007572548183601743  0.9652981041761268  0.8336020719861278  1.0000
  H   H69       1.0  0.055571929750352723  0.6029075059133097  0.1765839330820784  1.0000
  H   H70       1.0  0.9444280702097961  0.1029075058242732  0.3234160669041466  1.0000
  H   H71       1.0  0.9444280701287836  0.3970924942647633  0.8234160669191078  1.0000
  H   H72       1.0  0.055571929669340145  0.8970924943537997  0.6765839330970398  1.0000
  H   H73       1.0  0.1329271033004933  0.15913653830472851  0.18318691214490399  1.0000
  H   H74       1.0  0.8670728966596556  0.6591365372821766  0.316813087841321  1.0000
  H   H75       1.0  0.867072896578643  0.8408634618733445  0.8168130878562823  1.0000
  H   H76       1.0  0.1329271037039222  0.340863461784308  0.6831869122987562  1.0000
  H   H77       1.0  0.0870727054494979  0.11362531275060611  0.34452915074995794  1.0000
  H   H78       1.0  0.9129272945106509  0.6136253128396426  0.155470849236267  1.0000
  H   H79       1.0  0.9129272944296383  0.8863746874274668  0.6554708492512283  1.0000
  H   H80       1.0  0.08707270536848533  0.3863746873384304  0.8445291507649192  1.0000
  H   H81       1.0  0.4560283283432899  0.4543340203180284  0.35656881597341794  1.0000
  H   H82       1.0  0.543971671616859  0.9543340204070649  0.14343118401280708  1.0000
  H   H83       1.0  0.5439716715358464  0.5456659798600446  0.6434311840277683  1.0000
  H   H84       1.0  0.4560283287467188  0.04566597977100812  0.8565688161272701  1.0000
  H   H85       1.0  0.3510923039421839  0.3202953303593525  0.29795354645096844  1.0000
  H   H86       1.0  0.6489076960179649  0.820295330448389  0.20204645353525655  1.0000
  H   H87       1.0  0.6489076959369522  0.6797046698187206  0.7020464535502178  1.0000
  H   H88       1.0  0.3510923038611714  0.17970466972968405  0.7979535464659298  1.0000
  H   H89       1.0  0.28548912026738127  0.7035581850585736  0.1084325350918722  1.0000
  H   H90       1.0  0.7145108796927675  0.20355818496953712  0.39156746489435285  1.0000
  H   H91       1.0  0.714510879611755  0.2964418151194994  0.8915674649093142  1.0000
  H   H92       1.0  0.2854891206708102  0.7964418140969476  0.6084325352457244  1.0000
  H   H93       1.0  0.39245151169604303  0.8221245646644371  0.17636689249861148  1.0000
  H   H94       1.0  0.6075484882641057  0.32212456457540056  0.32363310748761354  1.0000
  H   H95       1.0  0.6075484881830933  0.17787543551363594  0.8236331075025748  1.0000
  H   H96       1.0  0.3924515120994719  0.6778754356026724  0.6763668926524637  1.0000
  C   C1        1.0  0.8824345574619905  0.30496785107432867  0.5470773811037772  1.0000
  C   C2        1.0  0.11756544233613314  0.8049678511633651  0.9529226189123704  1.0000
  C   C3        1.0  0.11756544241714571  0.6950321491037443  0.4529226188974091  1.0000
  C   C4        1.0  0.8824345575430032  0.1950321490147078  0.047077381088815914  1.0000
  C   C5        1.0  0.8208702250594064  0.37458193780643556  0.5322103079819055  1.0000
  C   C6        1.0  0.17912977522315868  0.874581937895472  0.967789692173133  1.0000
  C   C7        1.0  0.17912977481972978  0.6254180623716373  0.4677896920192808  1.0000
  C   C8        1.0  0.820870225140419  0.1254180622826009  0.032210307966944234  1.0000
  C   C9        1.0  0.777705910981189  0.33638920978653275  0.5985248829777876  1.0000
  C   C10       1.0  0.22229408881693474  0.8363892098755693  0.90147511703836  1.0000
  C   C11       1.0  0.22229408889794727  0.6636107903915403  0.40147511702339866  1.0000
  C   C12       1.0  0.7777059110622014  0.1636107903025037  0.09852488296282633  1.0000
  C   C13       1.0  0.7955024838421931  0.23373719809549076  0.6785020889554569  1.0000
  C   C14       1.0  0.20449751644037195  0.7337371981845273  0.8214979111995816  1.0000
  C   C15       1.0  0.20449751652138454  0.7662628020825822  0.3214979111846203  1.0000
  C   C16       1.0  0.7955024839232058  0.26626280199354574  0.17850208894049563  1.0000
  C   C17       1.0  0.8563452861644087  0.16569413805906671  0.6939697205265342  1.0000
  C   C18       1.0  0.14365471363371493  0.6656941381481032  0.8060302794896135  1.0000
  C   C19       1.0  0.1436547137147275  0.8343058610074179  0.3060302794746521  1.0000
  C   C20       1.0  0.8563452862454215  0.33430586091838144  0.19396972051157288  1.0000
  C   C21       1.0  0.8989634884355069  0.20083114419590675  0.6275445476969134  1.0000
  C   C22       1.0  0.10103651136261686  0.7008311442849433  0.8724554523192342  1.0000
  C   C23       1.0  0.1010365114436294  0.7991688548705779  0.3724554523042729  1.0000
  C   C24       1.0  0.8989634885165194  0.29916885478154137  0.12754454768195214  1.0000
  C   C25       1.0  0.9300173587154618  0.34487745729579766  0.48056896279738825  1.0000
  C   C26       1.0  0.06998264124468706  0.8448774562732458  0.01943103718883672  1.0000
  C   C27       1.0  0.06998264164811598  0.6551225428822752  0.5194310373426889  1.0000
  C   C28       1.0  0.9300173586344492  0.1551225427932388  0.9805689628123496  1.0000
  C   C29       1.0  0.6291129894736353  0.7564208178312627  0.4772614668119493  1.0000
  C   C30       1.0  0.3708870109709551  0.2564208177422262  0.022738533313166623  1.0000
  C   C31       1.0  0.37088701088871245  0.24357918234681028  0.5227385325602216  1.0000
  C   C32       1.0  0.6291129893926226  0.7435791824358468  0.9772614668269106  1.0000
  C   C33       1.0  0.6899282899347247  0.6838315626882129  0.4914956099981455  1.0000
  C   C34       1.0  0.3100717100254241  0.18383156371076478  0.008504389988079416  1.0000
  C   C35       1.0  0.3100717099444116  0.3161684363782717  0.5085043900030407  1.0000
  C   C36       1.0  0.689928289853712  0.8161684364673082  0.9914956100131068  1.0000
  C   C37       1.0  0.7411452987779746  0.7406310989863577  0.5650250468468491  1.0000
  C   C38       1.0  0.2588547015045906  0.2406310988973212  0.9349749533081894  1.0000
  C   C39       1.0  0.2588547015856031  0.2593689011917153  0.43497495329322816  1.0000
  C   C40       1.0  0.7411452983745457  0.7593689012807517  0.06502504669299684  1.0000
  C   C41       1.0  0.7323226037756496  0.8664275170380581  0.6231959523503624  1.0000
  C   C42       1.0  0.26767739602247403  0.3664275169490216  0.8768040476657851  1.0000
  C   C43       1.0  0.2676773961034866  0.13357248314001488  0.3768040476508239  1.0000
  C   C44       1.0  0.7323226038566623  0.6335724832290514  0.12319595233540104  1.0000
  C   C45       1.0  0.6725054229689033  0.9389609248713975  0.6091168819953043  1.0000
  C   C46       1.0  0.3274945773136619  0.4389609247823611  0.8908831181597342  1.0000
  C   C47       1.0  0.32749457739467447  0.0610390753066754  0.39088311814477283  1.0000
  C   C48       1.0  0.6725054225654743  0.561039075395712  0.10911688184145216  1.0000
  C   C49       1.0  0.6213706651737192  0.8838282908747122  0.5359475829248166  1.0000
  C   C50       1.0  0.378629335108846  0.38382829078567576  0.964052417230222  1.0000
  C   C51       1.0  0.3786293351898586  0.11617170930336072  0.4640524172152607  1.0000
  C   C52       1.0  0.6213706647702902  0.6161717093923972  0.0359475827709643  1.0000
  C   C53       1.0  0.5740050436575428  0.693918492099432  0.402174271452844  1.0000
  C   C54       1.0  0.4259949563026059  0.19391849201039563  0.09782572853338094  1.0000
  C   C55       1.0  0.4259949562215934  0.3060815080786409  0.5978257285483423  1.0000
  C   C56       1.0  0.5740050435765304  0.8060815081676773  0.9021742714678053  1.0000
  C   C57       1.0  0.12758217598606267  0.42035827384450475  0.0723059406242169  1.0000
  C   C58       1.0  0.8724178239740863  0.9203582739335413  0.4276940593620081  1.0000
  C   C59       1.0  0.8724178238930734  0.5796417263335681  0.9276940593769695  1.0000
  C   C60       1.0  0.1275821763894916  0.0796417262445317  0.5723059407780692  1.0000
  C   C61       1.0  0.19099322127397347  0.5100223940160923  0.09752949029097494  1.0000
  C   C62       1.0  0.8090067786861754  0.010022393927055827  0.40247050969525006  1.0000
  C   C63       1.0  0.8090067786051628  0.48997760616198066  0.9024705097102113  1.0000
  C   C64       1.0  0.19099322119296092  0.989977606251017  0.5975294903059363  1.0000
  C   C65       1.0  0.24325217527988835  0.4277471104656026  0.17239255711341486  1.0000
  C   C66       1.0  0.756747825164702  0.9277471105546391  0.327607443011701  1.0000
  C   C67       1.0  0.7567478250836894  0.5722528897124703  0.8276074430266624  1.0000
  C   C68       1.0  0.24325217519764572  0.07225288962343389  0.6723925563604698  1.0000
  C   C69       1.0  0.03774658677915588  0.45726565003693226  0.29934345360894427  1.0000
  C   C70       1.0  0.9622534131809929  0.9572656501259686  0.20065654637728075  1.0000
  C   C71       1.0  0.9622534130999805  0.5427343501411407  0.7006565463922421  1.0000
  C   C72       1.0  0.037746586698143306  0.04273435005210427  0.7993434536239057  1.0000
  C   C73       1.0  0.06370350496226447  0.49307636318756515  0.2115790874531673  1.0000
  C   C74       1.0  0.9362964949978844  0.9930763632766016  0.2884209125330577  1.0000
  C   C75       1.0  0.9362964949168717  0.5069236369905078  0.7884209125480189  1.0000
  C   C76       1.0  0.0637035048812519  0.006923636901471367  0.7115790874681286  1.0000
  C   C77       1.0  0.09906227170156508  0.38632815847376106  0.16731774337604824  1.0000
  C   C78       1.0  0.9009377287430254  0.8863281585627975  0.3326822567490677  1.0000
  C   C79       1.0  0.9009377286620127  0.6136718405927236  0.832682256764029  1.0000
  C   C80       1.0  0.09906227162055249  0.11367184050368712  0.6673177433910096  1.0000
  C   C81       1.0  0.10752264441772114  0.24732989927193486  0.21633799678824353  1.0000
  C   C82       1.0  0.8924773555424277  0.7473298993609714  0.2836620031979815  1.0000
  C   C83       1.0  0.8924773554614152  0.7526700997945497  0.7836620032129428  1.0000
  C   C84       1.0  0.10752264433670859  0.2526700997055133  0.7163379968032046  1.0000
  C   C85       1.0  0.08112075915086593  0.22087134452494578  0.3049359078198795  1.0000
  C   C86       1.0  0.9188792408092828  0.7208713435023939  0.19506409216634543  1.0000
  C   C87       1.0  0.9188792407282702  0.7791286556531272  0.6950640921813067  1.0000
  C   C88       1.0  0.08112075906985336  0.2791286555640907  0.8049359078348408  1.0000
  C   C89       1.0  0.41621500436378994  0.5052880158964798  0.30250060795268596  1.0000
  C   C90       1.0  0.5837849960808004  0.0052880158074432556  0.19749939217242996  1.0000
  C   C91       1.0  0.5837849959997877  0.4947119842815932  0.6974993921873912  1.0000
  C   C92       1.0  0.4162150042827774  0.9947119843706297  0.8025006079676473  1.0000
  C   C93       1.0  0.3579473739587528  0.4319774166213944  0.2695314539099794  1.0000
  C   C94       1.0  0.642052626001396  0.9319774167104308  0.23046854607624553  1.0000
  C   C95       1.0  0.6420526259203834  0.5680225835566787  0.7304685460912068  1.0000
  C   C96       1.0  0.3579473738777403  0.06802258346764212  0.7695314539249408  1.0000
  C   C97       1.0  0.30793596305882914  0.5030779659663392  0.20087367619549973  1.0000
  C   C98       1.0  0.6920640369013196  0.0030779658773027554  0.29912632379072523  1.0000
  C   C99       1.0  0.692064036820307  0.49692203421173375  0.7991263238056866  1.0000
  C   C100      1.0  0.3079359629778166  0.9969220343007702  0.700873676210461  1.0000
  C   C101      1.0  0.321293151669331  0.6441859853752375  0.1645885049022764  1.0000
  C   C102      1.0  0.6787068482908178  0.14418598639778935  0.33541149508394863  1.0000
  C   C103      1.0  0.6787068486942468  0.3558140136912471  0.8354114952378009  1.0000
  C   C104      1.0  0.32129315158831845  0.8558140137802837  0.6645885049172378  1.0000
  C   C105      1.0  0.3809780515467223  0.7110365623435073  0.20147043895299446  1.0000
  C   C106      1.0  0.6190219484134265  0.21103656225447087  0.2985295610332306  1.0000
  C   C107      1.0  0.6190219483324139  0.28896343783456563  0.7985295610481918  1.0000
  C   C108      1.0  0.38097805146570973  0.7889634368120138  0.7014704389679558  1.0000
  N   N1        1.0  0.04646574745785977  0.32358213144938147  0.3458918019048977  1.0000
  N   N2        1.0  0.9535342525022891  0.823582131538418  0.15410819808132722  1.0000
  N   N3        1.0  0.9535342524212765  0.6764178687286915  0.6541081980962885  1.0000
  N   N4        1.0  0.04646574786128868  0.17641786863965503  0.84589180205875  1.0000
  N   N5        1.0  0.4271473695685062  0.6437667531681696  0.2707188857496113  1.0000
  N   N6        1.0  0.5728526303916427  0.14376675307913303  0.2292811142366137  1.0000
  N   N7        1.0  0.5728526303106302  0.35623324700990344  0.7292811142515749  1.0000
  N   N8        1.0  0.42714736948749354  0.8562332470989399  0.7707188857645725  1.0000
  O   O1        1.0  0.9802890295349573  0.25463020566299627  0.48679181226947454  1.0000
  O   O2        1.0  0.019710970909632974  0.7546302057520328  0.013208187855641398  1.0000
  O   O3        1.0  0.01971097082862041  0.7453697945150767  0.5132081878706026  1.0000
  O   O4        1.0  0.9802890294539448  0.2453697944260402  0.9867918122844357  1.0000
  O   O5        1.0  0.9219465135204873  0.4566091015007311  0.4233802024561595  1.0000
  O   O6        1.0  0.07805348643966148  0.9566091004781793  0.07661979753006544  1.0000
  O   O7        1.0  0.07805348635864892  0.5433908986773419  0.5766197975450267  1.0000
  O   O8        1.0  0.9219465134394748  0.04339089858830536  0.923380202471121  1.0000
  O   O9        1.0  0.5783317561270667  0.5667467146893183  0.36562766558298565  1.0000
  O   O10       1.0  0.42166824383308216  0.0667467157118701  0.13437233440323934  1.0000
  O   O11       1.0  0.4216682437520697  0.43325328437716637  0.6343723344182007  1.0000
  O   O12       1.0  0.578331756046054  0.9332532844662029  0.8656276655979469  1.0000
  O   O13       1.0  0.5226839106434927  0.7794141526672005  0.3791544643796975  1.0000
  O   O14       1.0  0.4773160893166561  0.27941415257816404  0.12084553560652753  1.0000
  O   O15       1.0  0.4773160892356436  0.22058584751087243  0.6208455356214888  1.0000
  O   O16       1.0  0.5226839105624801  0.720585847599909  0.8791544643946588  1.0000
  S   S1        1.0  0.7994747701504662  0.5050115972243662  0.42926495725633224  1.0000
  S   S2        1.0  0.2005252302941241  0.005011597135329743  0.07073504286878364  1.0000
  S   S3        1.0  0.2005252302131115  0.4949884029537068  0.570735042883745  1.0000
  S   S4        1.0  0.7994747700694537  0.9949884030427432  0.9292649572712937  1.0000
  S   S5        1.0  0.6994724895353507  0.5267823460683573  0.41259461845617607  1.0000
  S   S6        1.0  0.3005275109092397  0.026782345979320787  0.08740538166893981  1.0000
  S   S7        1.0  0.3005275108282271  0.4732176541097157  0.5874053816839011  1.0000
  S   S8        1.0  0.699472489454338  0.9732176541987522  0.9125946184711374  1.0000
