data_image0
_chemical_formula_structural       H38C46N2O2S4I4
_chemical_formula_sum              "H38 C46 N2 O2 S4 I4"
_cell_length_a       8.49398145243289
_cell_length_b       10.356002941014532
_cell_length_c       13.744540390343724
_cell_angle_alpha    78.55443000702975
_cell_angle_beta     72.43491039167881
_cell_angle_gamma    83.0991709123374

_space_group_name_H-M_alt    "P 1"
_space_group_IT_number       1

loop_
  _space_group_symop_operation_xyz
  'x, y, z'

loop_
  _atom_site_type_symbol
  _atom_site_label
  _atom_site_symmetry_multiplicity
  _atom_site_fract_x
  _atom_site_fract_y
  _atom_site_fract_z
  _atom_site_occupancy
  H   H1        1.0  0.850232871925081  0.9335087612051078  0.42289726854735293  1.0000
  H   H2        1.0  0.1497671278469475  0.06649123914863886  0.5771027314616587  1.0000
  H   H3        1.0  0.07552832965097593  0.051564098396397993  0.28410068855085835  1.0000
  H   H4        1.0  0.9244716712987507  0.948435901956003  0.7158993114577477  1.0000
  H   H5        1.0  0.07641784635007373  0.0849201667769306  0.10220270964155907  1.0000
  H   H6        1.0  0.9235821534219549  0.9150798335768158  0.8977972903674525  1.0000
  H   H7        1.0  0.8541731610415811  0.9974707621912863  0.05384669246524169  1.0000
  H   H8        1.0  0.14582683990814543  0.002529238161114733  0.9461533075433644  1.0000
  H   H9        1.0  0.1805877463131859  0.9189961729314838  0.46397397815129254  1.0000
  H   H10       1.0  0.8194122536014009  0.08100382645047395  0.5360260218537477  1.0000
  H   H11       1.0  0.9289276304102615  0.8165935388589661  0.5931683592339968  1.0000
  H   H12       1.0  0.07107236950432531  0.1834064605229917  0.4068316407710434  1.0000
  H   H13       1.0  0.9255027712842046  0.5757196836130609  0.6442433599576861  1.0000
  H   H14       1.0  0.07449722848782436  0.4242803167406856  0.35575664005132546  1.0000
  H   H15       1.0  0.1740084855789906  0.4306426864992505  0.5687271061008643  1.0000
  H   H16       1.0  0.8259915153707359  0.5693573138531506  0.4312728939077418  1.0000
  H   H17       1.0  0.4197383343618494  0.531144724644501  0.4400083660217321  1.0000
  H   H18       1.0  0.5802616665878771  0.4688552757079001  0.5599916339868739  1.0000
  H   H19       1.0  0.1516875575918742  0.6895946473709048  0.3514641428235992  1.0000
  H   H20       1.0  0.8483124421801543  0.3104053529828416  0.6485358571854124  1.0000
  H   H21       1.0  0.9851139526862719  0.645090660190417  0.24384018324710155  1.0000
  H   H22       1.0  0.014886047228314821  0.3549093391915408  0.7561598167579386  1.0000
  H   H23       1.0  0.07695626804633668  0.7027911089197068  0.05473729172127444  1.0000
  H   H24       1.0  0.923043731725692  0.2972088914340397  0.9452627082877371  1.0000
  H   H25       1.0  0.35009484369948063  0.8063493854274434  0.9652128953999983  1.0000
  H   H26       1.0  0.6499051560725482  0.1936506149263032  0.03478710460901319  1.0000
  H   H27       1.0  0.9070915959712258  0.36522137789103704  0.14116043162221847  1.0000
  H   H28       1.0  0.09290840380080291  0.6347786224627094  0.8588395683867932  1.0000
  H   H29       1.0  0.7293049485152779  0.264967863123635  0.19767809245277854  1.0000
  H   H30       1.0  0.27069505139930883  0.7350321362583226  0.8023219075522617  1.0000
  H   H31       1.0  0.8259757603165634  0.32195519093401  0.27952639485319325  1.0000
  H   H32       1.0  0.1740242394554653  0.6780448094197363  0.7204736051558185  1.0000
  H   H33       1.0  0.5480288067894392  0.5884734928053524  0.06939286144889135  1.0000
  H   H34       1.0  0.4519711929825895  0.41152650754839404  0.9306071385601202  1.0000
  H   H35       1.0  0.5784515950568806  0.4126152571569937  0.08122732828432981  1.0000
  H   H36       1.0  0.4215484058928458  0.5873847431954075  0.9187726717242762  1.0000
  H   H37       1.0  0.7540609909436727  0.5153413427268159  0.024368141738234796  1.0000
  H   H38       1.0  0.24593900882835587  0.48465865762693056  0.9756318582707768  1.0000
  C   C1        1.0  0.5861782076777915  0.8340435545529383  0.3943644391226972  1.0000
  C   C2        1.0  0.413821793271935  0.16595644579946278  0.605635560885909  1.0000
  C   C3        1.0  0.46001438744773077  0.7926290026608203  0.36721101902483433  1.0000
  C   C4        1.0  0.5399856123242979  0.2073709976929264  0.6327889809841774  1.0000
  C   C5        1.0  0.5968361310269935  0.8679000838301646  0.1872566927717299  1.0000
  C   C6        1.0  0.4031638688875935  0.1320999155517932  0.8127433072333102  1.0000
  C   C7        1.0  0.7262325596697846  0.9161918247095018  0.2121020985925981  1.0000
  C   C8        1.0  0.2737674401022442  0.08380817564424495  0.7878979014164136  1.0000
  C   C9        1.0  0.7223838398413743  0.8985592825862663  0.3182429404857985  1.0000
  C   C10       1.0  0.27761615993065425  0.10144071776748025  0.6817570595232132  1.0000
  C   C11       1.0  0.8515188516269884  0.9478063445477206  0.342149712058375  1.0000
  C   C12       1.0  0.1484811481450402  0.05219365580602585  0.6578502879506366  1.0000
  C   C13       1.0  0.9762194070025654  0.012977882341360766  0.26543023716919606  1.0000
  C   C14       1.0  0.023780592769463323  0.9870221180123858  0.7345697628398156  1.0000
  C   C15       1.0  0.9776152973842229  0.031548838932171384  0.16096202853986266  1.0000
  C   C16       1.0  0.022384702387805915  0.968451161421575  0.8390379714691489  1.0000
  C   C17       1.0  0.8549851613370002  0.9828466129120318  0.13442425350333917  1.0000
  C   C18       1.0  0.1450148384350286  0.017153387441714664  0.8655757465056725  1.0000
  C   C19       1.0  0.3148815032190913  0.7313036165509247  0.44533184583790514  1.0000
  C   C20       1.0  0.6851184966954956  0.2686963828310329  0.5546681541671351  1.0000
  C   C21       1.0  0.17709357868107373  0.8122035045904872  0.48823447232574535  1.0000
  C   C22       1.0  0.8229064210909549  0.1877964957632593  0.5117655276832663  1.0000
  C   C23       1.0  0.03759021593572418  0.755400103727961  0.5591801361642964  1.0000
  C   C24       1.0  0.9624097838363047  0.24459989662578552  0.4408198638447153  1.0000
  C   C25       1.0  0.03543787131949129  0.6182696848121422  0.5882238653655554  1.0000
  C   C26       1.0  0.9645621284525375  0.38173031554160436  0.41177613464345625  1.0000
  C   C27       1.0  0.17381083877311426  0.53769481936758  0.5466360332794191  1.0000
  C   C28       1.0  0.8261891609989145  0.46230518098616646  0.4533639667295925  1.0000
  C   C29       1.0  0.31353620392199893  0.5938480840445395  0.4751256422373081  1.0000
  C   C30       1.0  0.6864637958500297  0.40615191630920716  0.5248743577717035  1.0000
  C   C31       1.0  0.39836091921205524  0.806674735148632  0.1099234544797753  1.0000
  C   C32       1.0  0.6016390805599736  0.19332526520511448  0.8900765455292363  1.0000
  C   C33       1.0  0.3473688359543431  0.7746698611782352  0.2190126399639303  1.0000
  C   C34       1.0  0.6526311639602439  0.2253301382037227  0.7809873600411098  1.0000
  C   C35       1.0  0.19700230922936043  0.7151775572151091  0.2680694458256739  1.0000
  C   C36       1.0  0.8029976905426682  0.28482244313863736  0.7319305541833377  1.0000
  C   C37       1.0  0.10307729838857434  0.6898806163191488  0.20747799645622841  1.0000
  C   C38       1.0  0.8969227015260125  0.3101193830628089  0.7925220035488119  1.0000
  C   C39       1.0  0.15484571010003947  0.7230755591168034  0.09935194068146143  1.0000
  C   C40       1.0  0.8451542898145473  0.27692444026515434  0.9006480593235787  1.0000
  C   C41       1.0  0.30332549529019365  0.78191656224066  0.049378638270538545  1.0000
  C   C42       1.0  0.6966745044818352  0.21808343811308634  0.950621361738473  1.0000
  C   C43       1.0  0.7949293597226579  0.34540927989264525  0.2060034489026581  1.0000
  C   C44       1.0  0.20507064019192886  0.6545907194893126  0.7939965511023822  1.0000
  C   C45       1.0  0.6330037035890019  0.5030016020972256  0.08239472759405893  1.0000
  C   C46       1.0  0.3669962961830268  0.4969983982565209  0.9176052724149527  1.0000
  N   N1        1.0  0.4658386138747479  0.8109024161481109  0.2618500532244374  1.0000
  N   N2        1.0  0.5341613858972809  0.18909758420563547  0.7381499467845742  1.0000
  O   O1        1.0  0.7579451102794306  0.6053449049092993  0.2047697897412626  1.0000
  O   O2        1.0  0.24205489067029604  0.3946550954431017  0.7952302102673435  1.0000
  S   S1        1.0  0.5888187512614343  0.8752547111473301  0.06319722507301784  1.0000
  S   S2        1.0  0.4111812486531526  0.12474528823462769  0.9368027749320224  1.0000
  S   S3        1.0  0.6572211571276714  0.4920795460500464  0.2099597254960957  1.0000
  S   S4        1.0  0.34277884264435704  0.5079204543037001  0.790040274512916  1.0000
  I   I1        1.0  0.5784579891107534  0.808812261176755  0.5543872168685279  1.0000
  I   I2        1.0  0.42154201080383336  0.19118773820520288  0.4456127831365123  1.0000
  I   I3        1.0  0.6305757048066737  0.8072578220777161  0.7906424728948154  1.0000
  I   I4        1.0  0.36942429496535484  0.1927421782760303  0.20935752711419625  1.0000
