data_image0
_chemical_formula_structural       H84C116N14O16
_chemical_formula_sum              "H84 C116 N14 O16"
_cell_length_a       9.903618345767498
_cell_length_b       13.192057275164283
_cell_length_c       17.595892897880532
_cell_angle_alpha    81.11182660112564
_cell_angle_beta     79.12109310653007
_cell_angle_gamma    86.08542367049544

_space_group_name_H-M_alt    "P 1"
_space_group_IT_number       1

loop_
  _space_group_symop_operation_xyz
  'x, y, z'

loop_
  _atom_site_type_symbol
  _atom_site_label
  _atom_site_symmetry_multiplicity
  _atom_site_fract_x
  _atom_site_fract_y
  _atom_site_fract_z
  _atom_site_occupancy
  H   H1        1.0  0.10051183333722936  0.7724889331971235  0.5727877034924584  1.0000
  H   H2        1.0  0.899488166138674  0.22751106689958708  0.4272122967605385  1.0000
  H   H3        1.0  0.7398957737780143  0.9564291329740197  0.6608755346069117  1.0000
  H   H4        1.0  0.2601042267261013  0.04357086712226414  0.3391244655332432  1.0000
  H   H5        1.0  0.1047925515249096  0.8718851070091055  0.1944796204501486  1.0000
  H   H6        1.0  0.8952074489792057  0.1281148930871782  0.8055203796900062  1.0000
  H   H7        1.0  0.43439453073847034  0.6153180090977052  0.30237909196004575  1.0000
  H   H8        1.0  0.5656054697656452  0.3846819909985786  0.6976209081801094  1.0000
  H   H9        1.0  0.2552773581659044  0.6988427575648157  0.3925835804431834  1.0000
  H   H10       1.0  0.7447226423382111  0.30115724253146814  0.6074164196969717  1.0000
  H   H11       1.0  0.2124635302222887  0.842755960541703  0.07560323739015502  1.0000
  H   H12       1.0  0.7875364703161432  0.15724403878597903  0.9243967622676293  1.0000
  H   H13       1.0  0.8572349813073893  0.9784922068907009  0.24797850152380566  1.0000
  H   H14       1.0  0.14276501816851403  0.021507793206009554  0.7520214987291913  1.0000
  H   H15       1.0  0.4722238413420011  0.6652781980045971  0.0932954925111091  1.0000
  H   H16       1.0  0.5277761591621143  0.33472180209168656  0.9067045076290459  1.0000
  H   H17       1.0  0.6809849983114131  0.02762519501896429  0.4630872904907451  1.0000
  H   H18       1.0  0.31901500219270224  0.9723748050773194  0.5369127096494098  1.0000
  H   H19       1.0  0.0183834816804886  0.7834458069370971  0.7033124612712119  1.0000
  H   H20       1.0  0.9816165188236269  0.21655419315918675  0.29668753886894306  1.0000
  H   H21       1.0  0.035257156607576064  0.0962233282274994  0.17815831338359694  1.0000
  H   H22       1.0  0.9647428438965393  0.9037766718687844  0.8218416867565579  1.0000
  H   H23       1.0  0.6283300083035634  0.9140764399299613  0.27633043659401413  1.0000
  H   H24       1.0  0.37166999220055197  0.08592356016632252  0.7236695635461409  1.0000
  H   H25       1.0  0.7736518139995697  0.36179405235516965  0.020617370121650786  1.0000
  H   H26       1.0  0.22634818546973612  0.6382059477408079  0.9793826295638296  1.0000
  H   H27       1.0  0.37311318856402736  0.16249015605836334  0.10249375517937412  1.0000
  H   H28       1.0  0.6268868119334905  0.8375098440371874  0.8975062443932643  1.0000
  H   H29       1.0  0.3817402329366489  0.8903540401530913  0.27380161100672296  1.0000
  H   H30       1.0  0.6182597675674665  0.10964595994319261  0.726198389133432  1.0000
  H   H31       1.0  0.15191805318695525  0.2492929934593352  0.09841264035374062  1.0000
  H   H32       1.0  0.8480819473105627  0.7507070066362156  0.9015873592188978  1.0000
  H   H33       1.0  0.021411858258529076  0.3822803005175595  0.022556990870760088  1.0000
  H   H34       1.0  0.9785881412107766  0.617719699578418  0.9774430088147202  1.0000
  H   H35       1.0  0.2558474232000218  0.013104889686745906  0.18793731802565297  1.0000
  H   H36       1.0  0.7441525762758815  0.9868951104099646  0.812062682227344  1.0000
  H   H37       1.0  0.34112560179766527  0.9880219861363627  0.021503356774613402  1.0000
  H   H38       1.0  0.6588743987064503  0.011978013959921159  0.9784966433655415  1.0000
  H   H39       1.0  0.03984368189149579  0.22224421972399724  0.8665777961472012  1.0000
  H   H40       1.0  0.9601563186126197  0.7777557803722865  0.13342220399295374  1.0000
  H   H41       1.0  0.43393630375625586  0.14647249686468414  0.9365009797009763  1.0000
  H   H42       1.0  0.5660636967478596  0.8535275032315996  0.06349902043917859  1.0000
  H   H43       1.0  0.28592818680925836  0.2619115498924423  0.8591991914184359  1.0000
  H   H44       1.0  0.7140718136948572  0.7380884502038414  0.1408008087217191  1.0000
  H   H45       1.0  0.6115463871152286  0.2018882410586879  0.5425909553358064  1.0000
  H   H46       1.0  0.3884536134298008  0.798111758269727  0.45740904488949474  1.0000
  H   H47       1.0  0.2975430228334062  0.44504849426986876  0.40212602677368386  1.0000
  H   H48       1.0  0.7024569766358997  0.5549515058261087  0.5978739729117964  1.0000
  H   H49       1.0  0.21336480144804973  0.2784442215109993  0.47814125382223066  1.0000
  H   H50       1.0  0.786635198021256  0.7215557785849782  0.5218587458632498  1.0000
  H   H51       1.0  0.972125521891085  0.4354620790131715  0.4545177303771676  1.0000
  H   H52       1.0  0.027874478606432745  0.5645379210823791  0.5454822691954708  1.0000
  H   H53       1.0  0.6630997030069633  0.6709197328667983  0.3051988234280215  1.0000
  H   H54       1.0  0.33690029749715206  0.32908026722948547  0.6948011767121335  1.0000
  H   H55       1.0  0.3706538205884195  0.15813773632001055  0.5475981700393928  1.0000
  H   H56       1.0  0.6293461788874838  0.8418622637766999  0.45240183021360414  1.0000
  H   H57       1.0  0.907434720178161  0.7137637594812061  0.2979917134734991  1.0000
  H   H58       1.0  0.09256528032595442  0.28623624061507774  0.7020082866666558  1.0000
  H   H59       1.0  0.059642822195508684  0.5982289134990092  0.3728905353055103  1.0000
  H   H60       1.0  0.9403571773147109  0.40177108582909954  0.6271094644651161  1.0000
  H   H61       1.0  0.7142438713064218  0.17281880860452187  0.34087400922148625  1.0000
  H   H62       1.0  0.28575612816948154  0.8271811914921886  0.6591259910315108  1.0000
  H   H63       1.0  0.5001155941190676  0.4666776213216494  0.18124580144507374  1.0000
  H   H64       1.0  0.4998844053502383  0.533322378774328  0.8187541982404067  1.0000
  H   H65       1.0  0.36110017268976785  0.3153779436574097  0.25066656894040285  1.0000
  H   H66       1.0  0.6388998278077501  0.684622056438141  0.7493334306322356  1.0000
  H   H67       1.0  0.9286705806079568  0.6223411795041052  0.10595549117566766  1.0000
  H   H68       1.0  0.07132941886794643  0.37765882059260547  0.8940445090773294  1.0000
  H   H69       1.0  0.46802072530242106  0.17208316990941913  0.33059958633616626  1.0000
  H   H70       1.0  0.5319792741734821  0.8279168301872913  0.6694004139168307  1.0000
  H   H71       1.0  0.2762979381823394  0.4931249430824669  0.20864127717607928  1.0000
  H   H72       1.0  0.7237020623217761  0.5068750570138169  0.7913587229640757  1.0000
  H   H73       1.0  0.1360371815227401  0.3475848102627789  0.28340445880778353  1.0000
  H   H74       1.0  0.8639628179465658  0.6524151898331987  0.7165955408776968  1.0000
  H   H75       1.0  0.17568518113592022  0.6265262984670188  0.11757802625308274  1.0000
  H   H76       1.0  0.8243148193681954  0.37347370162926496  0.8824219738870722  1.0000
  H   H77       1.0  0.6739776920223162  0.6538191376682527  0.912558402968765  1.0000
  H   H78       1.0  0.32602230744698957  0.3461808624277247  0.08744159671671528  1.0000
  H   H79       1.0  0.5830473437908165  0.5381940969781339  0.943243610277412  1.0000
  H   H80       1.0  0.4169526556784894  0.4618059031178436  0.05675638940806829  1.0000
  H   H81       1.0  0.6845247751144423  0.579367564727351  0.0054845944564571245  1.0000
  H   H82       1.0  0.315475224361461  0.4206324353693594  0.9945154057965399  1.0000
  H   H83       1.0  0.45432570875783934  0.7095553176046406  0.9637566479675678  1.0000
  H   H84       1.0  0.5456742917396786  0.29044468249091  0.03624335160507061  1.0000
  C   C1        1.0  0.8761001409035281  0.9216301114879935  0.47218556500836145  1.0000
  C   C2        1.0  0.12389985857237537  0.07836988860871703  0.5278144352446354  1.0000
  C   C3        1.0  0.06031970410598109  0.8420012100988075  0.3532852633954338  1.0000
  C   C4        1.0  0.9396802953633248  0.1579987899971702  0.6467147362900466  1.0000
  C   C5        1.0  0.01266950041495546  0.8241657337216505  0.5638429673040988  1.0000
  C   C6        1.0  0.9873305001234766  0.17583426560603155  0.4361570323536856  1.0000
  C   C7        1.0  0.9502835421099485  0.9049043345538502  0.333983011491978  1.0000
  C   C8        1.0  0.04971645838756963  0.0950956655417004  0.6660169880806603  1.0000
  C   C9        1.0  0.9878456762894057  0.8554136180814083  0.48846625609383454  1.0000
  C   C10       1.0  0.012154324214709715  0.14458638201487545  0.5115337440463203  1.0000
  C   C11       1.0  0.16579572472049406  0.7925514962529739  0.3003787058617733  1.0000
  C   C12       1.0  0.8342042747488118  0.2074485038430035  0.6996212938237071  1.0000
  C   C13       1.0  0.8086055781541333  0.9284802487207502  0.6119262762430923  1.0000
  C   C14       1.0  0.19139442136268395  0.07151975060809154  0.3880737240950508  1.0000
  C   C15       1.0  0.8531168368270388  0.9483279202068108  0.3935072303986456  1.0000
  C   C16       1.0  0.14688316264226706  0.05167207988916674  0.6064927692868348  1.0000
  C   C17       1.0  0.17676244724580642  0.8161343602679739  0.2185552437847052  1.0000
  C   C18       1.0  0.8232375522300968  0.18386563982873663  0.7814447564682917  1.0000
  C   C19       1.0  0.7849213030454361  0.9578008699377452  0.5362613238306903  1.0000
  C   C20       1.0  0.21507869745208208  0.042199130157805576  0.4637386757419481  1.0000
  C   C21       1.0  0.36289597866520024  0.6732106414677997  0.278858677813081  1.0000
  C   C22       1.0  0.6371040218389152  0.32678935862848413  0.721141322327074  1.0000
  C   C23       1.0  0.9224568388464292  0.8626100457542184  0.6252718092337687  1.0000
  C   C24       1.0  0.07754316062287667  0.13738995434175907  0.37472819045171174  1.0000
  C   C25       1.0  0.37435903517243735  0.6977353359802486  0.19748637001131994  1.0000
  C   C26       1.0  0.6256409643034659  0.30226466411646197  0.8025136302416771  1.0000
  C   C27       1.0  0.27938556346920657  0.771018385317691  0.16762961610613403  1.0000
  C   C28       1.0  0.7206144370349089  0.22898161477859288  0.8323703840340211  1.0000
  C   C29       1.0  0.2615068816933983  0.7196786636733914  0.32971647729400083  1.0000
  C   C30       1.0  0.738493118851631  0.2803213356550236  0.6702835229313003  1.0000
  C   C31       1.0  0.8388230682612364  0.14131213232772866  0.1440882405808257  1.0000
  C   C32       1.0  0.161176932242879  0.8586878677685551  0.8559117595593292  1.0000
  C   C33       1.0  0.5677917053187257  0.12335222451114354  0.14069523367719625  1.0000
  C   C34       1.0  0.4322082941505802  0.8766477755848339  0.8593047660082842  1.0000
  C   C35       1.0  0.763600293545513  0.21696083418577486  0.09783157001681295  1.0000
  C   C36       1.0  0.23639970695860255  0.7830391659105089  0.902168430123342  1.0000
  C   C37       1.0  0.9810384400438231  0.15348049424265972  0.14226148618614928  1.0000
  C   C38       1.0  0.018961559432080253  0.8465195058540509  0.8577385140668478  1.0000
  C   C39       1.0  0.5716164530752718  0.9664616305395332  0.23835688651508438  1.0000
  C   C40       1.0  0.42838354640063153  0.033538369557177414  0.7616431137379125  1.0000
  C   C41       1.0  0.6414886342285218  0.050213870016200916  0.18976699917763085  1.0000
  C   C42       1.0  0.3585113662689962  0.9497861300793498  0.8102330003950076  1.0000
  C   C43       1.0  0.8324129912797289  0.30432302926736643  0.05382419024717988  1.0000
  C   C44       1.0  0.1675870081895769  0.6956769708286111  0.9461758094383006  1.0000
  C   C45       1.0  0.4271520936656819  0.1079196455558433  0.14054938766041006  1.0000
  C   C46       1.0  0.5728479068384336  0.8920803545404403  0.859450612479745  1.0000
  C   C47       1.0  0.4357974753095277  0.9544952979168744  0.2368630357228418  1.0000
  C   C48       1.0  0.5642025242006921  0.045504701411234354  0.7631369640477846  1.0000
  C   C49       1.0  0.04378076832757235  0.23855096862623046  0.09879702861344476  1.0000
  C   C50       1.0  0.9562192322108595  0.7614490307014516  0.9012029710443398  1.0000
  C   C51       1.0  0.9690125441774514  0.3146594542301218  0.0550872208049738  1.0000
  C   C52       1.0  0.030987455298451955  0.6853405458665887  0.9449127794480231  1.0000
  C   C53       1.0  0.3636205485040007  0.025386691912657595  0.18747649238005096  1.0000
  C   C54       1.0  0.6363794520001148  0.974613308183626  0.8125235077601041  1.0000
  C   C55       1.0  0.1360240593425445  0.01694425632014414  0.9949060519513594  1.0000
  C   C56       1.0  0.8639759401267613  0.9830557437758335  0.005093947734120887  1.0000
  C   C57       1.0  0.9516621134482701  0.9142968475764204  0.048836529019583616  1.0000
  C   C58       1.0  0.048337886021035704  0.08570315251955718  0.9511634706658968  1.0000
  C   C59       1.0  0.276564026436107  0.04026750228605366  0.9880117799784863  1.0000
  C   C60       1.0  0.7234359730397963  0.959732497810657  0.01198822027451062  1.0000
  C   C61       1.0  0.10599329431068669  0.17323052803944783  0.9010030190090711  1.0000
  C   C62       1.0  0.8940067061934287  0.8267694720568358  0.09899698113108404  1.0000
  C   C63       1.0  0.32703701925304257  0.1274415258292716  0.9408431115665805  1.0000
  C   C64       1.0  0.6729629802228607  0.8725584742674389  0.05915688868641637  1.0000
  C   C65       1.0  0.2416232187380871  0.19394731135083235  0.8965487957824644  1.0000
  C   C66       1.0  0.75837678077873  0.8060526879780096  0.10345120455567866  1.0000
  C   C67       1.0  0.5024388850698837  0.4186344921214348  0.4289797291893671  1.0000
  C   C68       1.0  0.49756111440601963  0.5813655079752758  0.57102027106363  1.0000
  C   C69       1.0  0.6789189441097054  0.5291385181527463  0.38340999705500667  1.0000
  C   C70       1.0  0.3210810553661978  0.4708614819439643  0.6165900031979904  1.0000
  C   C71       1.0  0.5928425771640329  0.3490868676787554  0.4704624626917998  1.0000
  C   C72       1.0  0.40715742230527296  0.650913132417222  0.5295375369936804  1.0000
  C   C73       1.0  0.5417807383331424  0.25458813563537064  0.5132015890163653  1.0000
  C   C74       1.0  0.4582192611361634  0.745411864460607  0.48679841066911506  1.0000
  C   C75       1.0  0.36415131126632805  0.39134804754379454  0.4332329933481436  1.0000
  C   C76       1.0  0.6358486892377874  0.6086519525524893  0.5667670067920114  1.0000
  C   C77       1.0  0.7683364782500167  0.46061941616447727  0.42615466112449346  1.0000
  C   C78       1.0  0.23166352122588654  0.5393805839322333  0.5738453391285036  1.0000
  C   C79       1.0  0.31883353205724146  0.2996330980003997  0.47525292796128393  1.0000
  C   C80       1.0  0.6811664684468739  0.7003669020958841  0.5247470721788711  1.0000
  C   C81       1.0  0.9064471593562247  0.48798198897109124  0.42188394800777185  1.0000
  C   C82       1.0  0.09355284011967867  0.5120180111256193  0.5781160522452252  1.0000
  C   C83       1.0  0.7320679814617084  0.6210091598754431  0.3372685534317676  1.0000
  C   C84       1.0  0.2679320180141949  0.37899084022126744  0.6627314468212293  1.0000
  C   C85       1.0  0.4083242976312147  0.23086263598757084  0.5151859430015718  1.0000
  C   C86       1.0  0.5916757018856026  0.7691373633412708  0.4848140573365713  1.0000
  C   C87       1.0  0.866354275379229  0.6440571136269224  0.33393231325195755  1.0000
  C   C88       1.0  0.1336457240966744  0.35594288646978817  0.6660676870010396  1.0000
  C   C89       1.0  0.9536468240975039  0.5775057182590971  0.3768971162927235  1.0000
  C   C90       1.0  0.046353176447525575  0.42249428106931786  0.6231028839325777  1.0000
  C   C91       1.0  0.9533938135235188  0.4023960666245462  0.23670655435351148  1.0000
  C   C92       1.0  0.04660618595238453  0.5976039334721645  0.7632934458994856  1.0000
  C   C93       1.0  0.685036369969101  0.4050523654482838  0.2211558177338227  1.0000
  C   C94       1.0  0.31496363053501447  0.5949476346479999  0.7788441824063324  1.0000
  C   C95       1.0  0.6659276730771986  0.2368570232137977  0.30733074417033013  1.0000
  C   C96       1.0  0.3340723263987047  0.7631429768829129  0.6926692560826669  1.0000
  C   C97       1.0  0.746724593332317  0.3211112803050749  0.26835760212943877  1.0000
  C   C98       1.0  0.25327540614358623  0.6788887197916357  0.7316423981235582  1.0000
  C   C99       1.0  0.5435769692458507  0.40157570727359587  0.21616809894442657  1.0000
  C   C100      1.0  0.4564230302709665  0.5984242920552458  0.7838319013937166  1.0000
  C   C101      1.0  0.46888781381738887  0.3191808716302532  0.2548874612449553  1.0000
  C   C102      1.0  0.5311121866801292  0.6808191284652976  0.7451125383276831  1.0000
  C   C103      1.0  0.8920708350325735  0.48327505064875964  0.18733083279855547  1.0000
  C   C104      1.0  0.1079291644367323  0.5167249494472179  0.812669166886925  1.0000
  C   C105      1.0  0.9762508448834243  0.5632045928914299  0.14387673770636286  1.0000
  C   C106      1.0  0.02374915459247903  0.43679540720528054  0.8561232625466343  1.0000
  C   C107      1.0  0.5301362661379294  0.2364438311085895  0.3005547551906497  1.0000
  C   C108      1.0  0.46986373436618606  0.7635561689876943  0.6994452449495052  1.0000
  C   C109      1.0  0.16999782435788502  0.48759527720987916  0.20223281243954225  1.0000
  C   C110      1.0  0.8300021761462303  0.5124047228864047  0.7977671877006127  1.0000
  C   C111      1.0  0.09334265405958878  0.4077300846442293  0.24390560450364693  1.0000
  C   C112      1.0  0.9066573464379292  0.5922699154513215  0.7560943950689916  1.0000
  C   C113      1.0  0.11178866023728709  0.5649832738321007  0.15080464838718322  1.0000
  C   C114      1.0  0.8882113392386162  0.4350167262646098  0.8491953518658137  1.0000
  C   C115      1.0  0.6159092081342362  0.6058851134512564  0.9635095498343053  1.0000
  C   C116      1.0  0.38409079236987914  0.3941148866450274  0.03649045030584986  1.0000
  N   N1        1.0  0.775245487882578  0.06061350623968963  0.18949940115394664  1.0000
  N   N2        1.0  0.22475451262153745  0.939386493856594  0.8105005989862082  1.0000
  N   N3        1.0  0.6299977744695948  0.20555718885869548  0.09664453373391706  1.0000
  N   N4        1.0  0.37000222500630847  0.7944428112380151  0.9033554665190799  1.0000
  N   N5        1.0  0.08597657230998038  0.932417752667401  0.042322007809628595  1.0000
  N   N6        1.0  0.914023428194135  0.06758224742888277  0.9576779923305263  1.0000
  N   N7        1.0  0.5472731238760582  0.5071861683756171  0.3859532409942683  1.0000
  N   N8        1.0  0.45272687559984504  0.49281383172109333  0.6140467592587288  1.0000
  N   N9        1.0  0.723919389649207  0.371507190712571  0.4687819119685954  1.0000
  N   N10       1.0  0.2760806108549085  0.6284928093837128  0.5312180881715596  1.0000
  N   N11       1.0  0.880043040120109  0.32158592593143076  0.2747201729334443  1.0000
  N   N12       1.0  0.11995695939011079  0.678414073396678  0.7252798268371821  1.0000
  N   N13       1.0  0.7591402140138929  0.4837788168722148  0.18038642857900386  1.0000
  N   N14       1.0  0.2408597864836252  0.5162211832233359  0.8196135709936346  1.0000
  O   O1        1.0  0.07713057309157051  0.8182926231451678  0.4294796897083827  1.0000
  O   O2        1.0  0.9228694263843327  0.18170737695154277  0.5705203105446144  1.0000
  O   O3        1.0  0.7504632649073764  0.005438173417661873  0.3757670336809328  1.0000
  O   O4        1.0  0.24953673456852685  0.9945618266790488  0.6242329665720643  1.0000
  O   O5        1.0  0.675702165017152  0.019746167094921007  0.5221140023960135  1.0000
  O   O6        1.0  0.3242978344587513  0.9802538330017895  0.4778859978569835  1.0000
  O   O7        1.0  0.941186255809578  0.8381727508402511  0.7000644652300798  1.0000
  O   O8        1.0  0.05881374366632511  0.16182724925645947  0.2999355350229172  1.0000
  O   O9        1.0  0.9306910447055109  0.9227723875442724  0.2592520890810335  1.0000
  O   O10       1.0  0.06930895579860462  0.07722761255201131  0.7407479110591215  1.0000
  O   O11       1.0  0.2907747592754114  0.7939107918902175  0.08815987126686455  1.0000
  O   O12       1.0  0.709225241228704  0.2060892082060663  0.9118401288732905  1.0000
  O   O13       1.0  0.47429434771134915  0.6492529338822896  0.1512382159346953  1.0000
  O   O14       1.0  0.5257056527927664  0.35074706621399415  0.8487617842054598  1.0000
  O   O15       1.0  0.5022566092994726  0.6620731593762577  0.001949623556191083  1.0000
  O   O16       1.0  0.49774339016983327  0.3379268407197198  0.9980503761292894  1.0000
