data_image0
_chemical_formula_structural       H94C112N6P4
_chemical_formula_sum              "H94 C112 N6 P4"
_cell_length_a       8.892053353981323
_cell_length_b       14.520527201598279
_cell_length_c       18.783344429588357
_cell_angle_alpha    102.45830674638077
_cell_angle_beta     99.86713425776415
_cell_angle_gamma    106.70616309323567

_space_group_name_H-M_alt    "P 1"
_space_group_IT_number       1

loop_
  _space_group_symop_operation_xyz
  'x, y, z'

loop_
  _atom_site_type_symbol
  _atom_site_label
  _atom_site_symmetry_multiplicity
  _atom_site_fract_x
  _atom_site_fract_y
  _atom_site_fract_z
  _atom_site_occupancy
  H   H1        1.0  0.15578925720154196  0.21333782673611454  0.5807249814292701  1.0000
  H   H2        1.0  0.8442107430079218  0.7866621731541209  0.4192750184328878  1.0000
  H   H3        1.0  0.29053084166152193  0.6642654032843921  0.2621217552969031  1.0000
  H   H4        1.0  0.7094691588477996  0.3357345968195766  0.737878245128281  1.0000
  H   H5        1.0  0.4804955136437438  0.7359153274305744  0.326361576794973  1.0000
  H   H6        1.0  0.51950448656572  0.2640846724596611  0.6736384230671849  1.0000
  H   H7        1.0  0.45314257082938597  0.7299983491805144  0.2296298349436685  1.0000
  H   H8        1.0  0.5468574293800778  0.2700016507097211  0.7703701649184894  1.0000
  H   H9        1.0  0.29086585531365416  0.948915076046266  0.5331270535814391  1.0000
  H   H10       1.0  0.7091341448958096  0.051084923843969496  0.46687294628071885  1.0000
  H   H11       1.0  0.312608818478982  0.8321778620294741  0.17539279986481768  1.0000
  H   H12       1.0  0.6873911817304816  0.16782213786076128  0.8246071999973402  1.0000
  H   H13       1.0  0.35807290163605576  0.8379691860135124  0.40868329641901596  1.0000
  H   H14       1.0  0.6419270974463274  0.1620308138730459  0.5913167034410096  1.0000
  H   H15       1.0  0.8293043719467269  0.17228897970529536  0.32202708326974033  1.0000
  H   H16       1.0  0.17069562713565628  0.8277110201812631  0.6779729165902852  1.0000
  H   H17       1.0  0.6639094793501628  0.2942869684165388  0.5543035777249504  1.0000
  H   H18       1.0  0.33609052115915866  0.7057130316874298  0.44569642270023374  1.0000
  H   H19       1.0  0.5366533275680411  0.14697725876105197  0.31596934353080164  1.0000
  H   H20       1.0  0.46334667151434195  0.8530227411255064  0.6840306563292239  1.0000
  H   H21       1.0  0.9519031910838567  0.3147537125325217  0.5609563311643431  1.0000
  H   H22       1.0  0.0480968094572285  0.6852462880757455  0.43904366869518147  1.0000
  H   H23       1.0  0.5998410021262929  0.0477665034203857  0.19336271034707037  1.0000
  H   H24       1.0  0.40015899838302865  0.952233496683583  0.8066372900781139  1.0000
  H   H25       1.0  0.6458982576529578  0.8869281608740278  0.19696077785560973  1.0000
  H   H26       1.0  0.3541017414294253  0.11307183901253046  0.8030392220044159  1.0000
  H   H27       1.0  0.8119450748920162  0.183118131447322  0.16968379510115122  1.0000
  H   H28       1.0  0.18805492531744755  0.8168818684429134  0.8303162047610066  1.0000
  H   H29       1.0  0.06868511384187437  0.16045361812658657  0.1503726451494397  1.0000
  H   H30       1.0  0.9313148866674473  0.8395463819773822  0.8496273552757446  1.0000
  H   H31       1.0  0.9103270240867838  0.8687236430357859  0.1888171899879035  1.0000
  H   H32       1.0  0.08967297612267969  0.13127635685444947  0.8111828098742543  1.0000
  H   H33       1.0  0.17523458292288133  0.1274457695824024  0.31540046039163  1.0000
  H   H34       1.0  0.8247654172865825  0.8725542303078332  0.6845995394705279  1.0000
  H   H35       1.0  0.11893925545095767  0.015358233799425278  0.6465619280204391  1.0000
  H   H36       1.0  0.8810607447585062  0.9846417660908102  0.3534380718417188  1.0000
  H   H37       1.0  0.22410229796874087  0.14596529420524498  0.6798239581927261  1.0000
  H   H38       1.0  0.7758977022407227  0.8540347056849904  0.32017604166943175  1.0000
  H   H39       1.0  0.3328855173854414  0.06037135812238953  0.6688603952027787  1.0000
  H   H40       1.0  0.6671144828240224  0.939628641767846  0.3311396046593792  1.0000
  H   H41       1.0  0.45634661599332826  0.21077459494029635  0.43205665412609434  1.0000
  H   H42       1.0  0.5436533842161354  0.7892254049499391  0.5679433457360635  1.0000
  H   H43       1.0  0.9398255809856337  0.827158303354726  0.06967644096828826  1.0000
  H   H44       1.0  0.06017441985530915  0.1728416974672746  0.9303235594542627  1.0000
  H   H45       1.0  0.4360265838079511  0.9837560086659484  0.07619861897111117  1.0000
  H   H46       1.0  0.5639734164015124  0.016243991224287074  0.9238013808910465  1.0000
  H   H47       1.0  0.44518039676293  0.32782790136613205  0.5318370673358005  1.0000
  H   H48       1.0  0.554819602319453  0.6721720985204263  0.468162932524225  1.0000
  H   H49       1.0  0.05694130022422876  0.4485828304361507  0.5030103791016366  1.0000
  H   H50       1.0  0.9430586991897756  0.5514171701684394  0.4969896207557555  1.0000
  H   H51       1.0  0.9866274837460409  0.39344047140928584  0.3739196809578175  1.0000
  H   H52       1.0  0.013372515336342095  0.6065595284772725  0.6260803189022079  1.0000
  H   H53       1.0  0.25848696118025866  0.3859224335388163  0.16380717885964052  1.0000
  H   H54       1.0  0.7415130390292051  0.6140775663514192  0.8361928210025172  1.0000
  H   H55       1.0  0.27871748480252934  0.2752278827072776  0.24472224795644731  1.0000
  H   H56       1.0  0.7212825154069343  0.7247721171829579  0.7552777519057106  1.0000
  H   H57       1.0  0.9642766689812219  0.5041157725690393  0.2932406339978545  1.0000
  H   H58       1.0  0.03572333122824188  0.4958842273211962  0.7067593658643033  1.0000
  H   H59       1.0  0.7379918508230093  0.6572874817328775  0.08604469878242807  1.0000
  H   H60       1.0  0.26200814825937374  0.3427125181536807  0.9139553010775973  1.0000
  H   H61       1.0  0.021396778244737714  0.7070342218063786  0.30966991984642545  1.0000
  H   H62       1.0  0.9786032219647259  0.2929657780838569  0.6903300800157324  1.0000
  H   H63       1.0  0.5088749623773304  0.5398156705421626  0.24724671326829065  1.0000
  H   H64       1.0  0.4911250378321333  0.46018432934807296  0.7527532865938673  1.0000
  H   H65       1.0  0.003751899498785542  0.728744822132201  0.18188003519179055  1.0000
  H   H66       1.0  0.9962481007106782  0.2712551777580344  0.8181199646703674  1.0000
  H   H67       1.0  0.49014064949879993  0.5643848462640422  0.11948002934546334  1.0000
  H   H68       1.0  0.5098593495835831  0.4356151536225161  0.8805199705145622  1.0000
  H   H69       1.0  0.2378705668749173  0.6106423426470251  0.5927714323044596  1.0000
  H   H70       1.0  0.7621294333345463  0.3893576572432103  0.40722856755769826  1.0000
  H   H71       1.0  0.20675983793687555  0.10406551614184245  0.04522608282994248  1.0000
  H   H72       1.0  0.7932401622725882  0.895934483748393  0.9547739170322155  1.0000
  H   H73       1.0  0.5228085474959447  0.6323323562826052  0.6507392129435463  1.0000
  H   H74       1.0  0.47719145158643833  0.367667643603953  0.34926078691647916  1.0000
  H   H75       1.0  0.6267320176394305  0.49097918180987704  0.6213443526804783  1.0000
  H   H76       1.0  0.3732679825700332  0.5090208180803585  0.3786556471816796  1.0000
  H   H77       1.0  0.17030845887920587  0.7020445398178891  0.9089562663789519  1.0000
  H   H78       1.0  0.8296915402031771  0.29795546006866924  0.09104373348107365  1.0000
  H   H79       1.0  0.6022254726603881  0.2704283194719476  0.2414246128312191  1.0000
  H   H80       1.0  0.3977745275490756  0.7295716804182878  0.7585753870309387  1.0000
  H   H81       1.0  0.5446137207514148  0.3879740709864462  0.05023557240334335  1.0000
  H   H82       1.0  0.4553862794580489  0.6120259289037892  0.9497644274588144  1.0000
  H   H83       1.0  0.6941482125226289  0.4035643002933775  0.1801165279536726  1.0000
  H   H84       1.0  0.305851786859612  0.596435699806914  0.8198834724693792  1.0000
  H   H85       1.0  0.3038338947470562  0.23521914653153758  0.9831352724594706  1.0000
  H   H86       1.0  0.6961661043353268  0.7647808533550206  0.01686472740055469  1.0000
  H   H87       1.0  0.42316660550058977  0.848800592616033  0.9662788207909156  1.0000
  H   H88       1.0  0.5768333935817933  0.15119940727052536  0.03372117906910998  1.0000
  H   H89       1.0  0.9263788079802878  0.6931331567892272  0.9592555630467944  1.0000
  H   H90       1.0  0.07362119222917592  0.3068668431010084  0.040744436815363494  1.0000
  H   H91       1.0  0.09670637729336573  0.5015254288595975  0.1862940768999686  1.0000
  H   H92       1.0  0.903293622916098  0.4984745710306379  0.8137059229621892  1.0000
  H   H93       1.0  0.7725061288156335  0.609418983971952  0.34204551874198663  1.0000
  H   H94       1.0  0.2274938716936881  0.3905810161320166  0.6579544816831976  1.0000
  C   C1        1.0  0.21973654034245985  0.07957490624001588  0.564644051386433  1.0000
  C   C2        1.0  0.7802634598670039  0.9204250936502195  0.43535594847572484  1.0000
  C   C3        1.0  0.24367881732979563  0.009888800573604388  0.43950830873570035  1.0000
  C   C4        1.0  0.7563211831795258  0.9901111995303642  0.5604916916894839  1.0000
  C   C5        1.0  0.1677333309547692  0.1621582864309048  0.46592681752847365  1.0000
  C   C6        1.0  0.8322666695545525  0.8378417136730639  0.5340731828967107  1.0000
  C   C7        1.0  0.3406064950241245  0.8246388022674545  0.29044865213288534  1.0000
  C   C8        1.0  0.6593935054851969  0.17536119783651413  0.7095513482922988  1.0000
  C   C9        1.0  0.1786236058744473  0.1560309490563016  0.5401075758174123  1.0000
  C   C10       1.0  0.8213763943350163  0.8439690508339339  0.4598924240447455  1.0000
  C   C11       1.0  0.24976971900149092  0.949118544013362  0.24149688941366876  1.0000
  C   C12       1.0  0.7502302803807501  0.05088145608692952  0.7585031110093832  1.0000
  C   C13       1.0  0.3939743534281503  0.7343978558302435  0.2763759043480476  1.0000
  C   C14       1.0  0.6060256467813134  0.265602144059992  0.7236240955141102  1.0000
  C   C15       1.0  0.25487792420209593  0.007103890935098112  0.5139968620922534  1.0000
  C   C16       1.0  0.7451220760073678  0.9928961089551374  0.4860031377699046  1.0000
  C   C17       1.0  0.1964335772427946  0.08644855777428515  0.4154000591402526  1.0000
  C   C18       1.0  0.803566423266527  0.9135514423296835  0.5845999412849316  1.0000
  C   C19       1.0  0.2366912795841885  0.9913848252856711  0.31387472713188125  1.0000
  C   C20       1.0  0.7633087209251329  0.008615174818297653  0.686125273293303  1.0000
  C   C21       1.0  0.3015428089036727  0.8658162242037485  0.2312909715530419  1.0000
  C   C22       1.0  0.6984571916056489  0.13418377590022032  0.7687090288721424  1.0000
  C   C23       1.0  0.3257935449596979  0.8677105786970722  0.3620282267681201  1.0000
  C   C24       1.0  0.6742064552497656  0.1322894211931632  0.6379717730940376  1.0000
  C   C25       1.0  0.27185770263384845  0.9497203342890718  0.37428713555859683  1.0000
  C   C26       1.0  0.7281422975756152  0.050279665601163655  0.625712864303561  1.0000
  C   C27       1.0  0.9085192731989687  0.2449361982478364  0.4414667244021762  1.0000
  C   C28       1.0  0.09148072731035298  0.7550638018561323  0.5585332760230081  1.0000
  C   C29       1.0  0.7908883172442479  0.19667798178603263  0.37288533118601674  1.0000
  C   C30       1.0  0.2091116832650736  0.803322018317936  0.6271146692391675  1.0000
  C   C31       1.0  0.6987486057288848  0.2649037608549143  0.503580758583306  1.0000
  C   C32       1.0  0.30125139448057886  0.7350962390353212  0.49641924127885195  1.0000
  C   C33       1.0  0.62763398400569  0.18240741087449638  0.36967313710223315  1.0000
  C   C34       1.0  0.3723660162037737  0.8175925890157391  0.6303268627599248  1.0000
  C   C35       1.0  0.8615895047141228  0.27752709511038276  0.5073757475983215  1.0000
  C   C36       1.0  0.13841049466811817  0.7224729049899086  0.49262425282473027  1.0000
  C   C37       1.0  0.007011581173441591  0.012686994394448464  0.16724257188484976  1.0000
  C   C38       1.0  0.9929884190360221  0.9873130054957869  0.832757427977308  1.0000
  C   C39       1.0  0.711905668679198  0.03644337090201855  0.18398107773499678  1.0000
  C   C40       1.0  0.28809433183012345  0.96355662920195  0.8160189226901874  1.0000
  C   C41       1.0  0.7386159028664199  0.9469558514829953  0.18693034428457703  1.0000
  C   C42       1.0  0.26138409621596326  0.053044148403563016  0.8130696555754485  1.0000
  C   C43       1.0  0.8312840781663898  0.1128252942550933  0.17097862480731654  1.0000
  C   C44       1.0  0.16871592204307387  0.8871747056351422  0.8290213750548413  1.0000
  C   C45       1.0  0.9768656858929817  0.10047439863240863  0.16087302181310315  1.0000
  C   C46       1.0  0.023134314316482003  0.899525601257827  0.8391269780490548  1.0000
  C   C47       1.0  0.886762623810697  0.9358882893144618  0.18070226681529789  1.0000
  C   C48       1.0  0.11323737669862444  0.06411171078950675  0.8192977336098863  1.0000
  C   C49       1.0  0.22448252146221523  0.0754645181112696  0.6440867507824022  1.0000
  C   C50       1.0  0.7755174787472485  0.9245354817789659  0.3559132490797557  1.0000
  C   C51       1.0  0.5824949715699  0.21797989760787279  0.4350908371143258  1.0000
  C   C52       1.0  0.41750502863956374  0.7820201022823627  0.5649091627478321  1.0000
  C   C53       1.0  0.046079625318547895  0.8312300962497291  0.047421235207568545  1.0000
  C   C54       1.0  0.9539203748909159  0.16876990364050642  0.9525787646545893  1.0000
  C   C55       1.0  0.32509967309498233  0.9195605698258297  0.050968529958782365  1.0000
  C   C56       1.0  0.6749003259874009  0.08043943006072875  0.9490314699012433  1.0000
  C   C57       1.0  0.18928701947787469  0.9131335808858715  0.08080102831381208  1.0000
  C   C58       1.0  0.8107129799043662  0.08686641921441997  0.9191989721092397  1.0000
  C   C59       1.0  0.4001586150756735  0.3900256977591795  0.5451416306392203  1.0000
  C   C60       1.0  0.5998413851337903  0.6099743021310561  0.45485836922293754  1.0000
  C   C61       1.0  0.2390925463417248  0.3772542470028659  0.5113794932364356  1.0000
  C   C62       1.0  0.7609074541675965  0.6227457531011026  0.4886205071887486  1.0000
  C   C63       1.0  0.1816262803965363  0.45769768544936923  0.5286340181324536  1.0000
  C   C64       1.0  0.818373719017468  0.5423023151552209  0.47136598172493854  1.0000
  C   C65       1.0  0.13442794004964762  0.3247220316020299  0.3155217804243349  1.0000
  C   C66       1.0  0.8655720601598161  0.6752779682882056  0.684478219437823  1.0000
  C   C67       1.0  0.046935649018430066  0.39156147149927484  0.32812941932356043  1.0000
  C   C68       1.0  0.9530643514908914  0.6084385286046937  0.6718705811016238  1.0000
  C   C69       1.0  0.19739021704517334  0.3882466742758183  0.20954838204331017  1.0000
  C   C70       1.0  0.8026097820372097  0.6117533256107398  0.7904516178167152  1.0000
  C   C71       1.0  0.20954696356915553  0.3254380037896545  0.25501526447637285  1.0000
  C   C72       1.0  0.7904530366403082  0.674561996100581  0.744984735385785  1.0000
  C   C73       1.0  0.034147340811670014  0.45424381912061945  0.28225083667563794  1.0000
  C   C74       1.0  0.9658526593977936  0.545756180769616  0.7177491631865199  1.0000
  C   C75       1.0  0.7456764392221905  0.647812065561258  0.1424710534742748  1.0000
  C   C76       1.0  0.25432356019181385  0.35218793504333207  0.8575289463831173  1.0000
  C   C77       1.0  0.9046723407561184  0.6749470810052541  0.2681320118859063  1.0000
  C   C78       1.0  0.09532765945334533  0.32505291888498133  0.7318679879762515  1.0000
  C   C79       1.0  0.6168139764142249  0.5818454032184716  0.23297079422015787  1.0000
  C   C80       1.0  0.3831860240950967  0.4181545968854972  0.7670292062050263  1.0000
  C   C81       1.0  0.894829405134668  0.6875898506959485  0.1960074237242705  1.0000
  C   C82       1.0  0.10517059540641682  0.31241014991231875  0.803992576135254  1.0000
  C   C83       1.0  0.6066274018177148  0.59551926749668  0.16114093500729243  1.0000
  C   C84       1.0  0.39337259839174876  0.4044807323935553  0.8388590648548654  1.0000
  C   C85       1.0  0.28311408880526767  0.5486083510968375  0.5792200983276581  1.0000
  C   C86       1.0  0.716885911404196  0.451391648793398  0.4207799015344998  1.0000
  C   C87       1.0  0.31352228252661285  0.16973848758272833  0.0753553532327088  1.0000
  C   C88       1.0  0.6864777176828509  0.8302615123075072  0.9246446466294491  1.0000
  C   C89       1.0  0.39617737371681494  0.17757574109450694  0.149073820527644  1.0000
  C   C90       1.0  0.6038226267925065  0.8224242590094616  0.8509261798975403  1.0000
  C   C91       1.0  0.4429929306459478  0.5607486584922351  0.6122308492268712  1.0000
  C   C92       1.0  0.5570070698633738  0.43925134161173357  0.38776915119831296  1.0000
  C   C93       1.0  0.5016536024492656  0.48118640019596565  0.5953705360101395  1.0000
  C   C94       1.0  0.4983463966331176  0.5188135996905927  0.404629463849886  1.0000
  C   C95       1.0  0.17558361863194216  0.7610487851281588  0.957294391825155  1.0000
  C   C96       1.0  0.8244163818773794  0.23895121497581  0.042705608600029255  1.0000
  C   C97       1.0  0.5359359729556226  0.26351595792738725  0.18491745601512874  1.0000
  C   C98       1.0  0.46406402612676045  0.736484041959171  0.8150825438448968  1.0000
  C   C99       1.0  0.5029962355967276  0.32982711035849127  0.07761548226053128  1.0000
  C   C100      1.0  0.497003764912594  0.6701728897454775  0.9223845181646531  1.0000
  C   C101      1.0  0.5870682185940608  0.3382517436815523  0.1502309722650235  1.0000
  C   C102      1.0  0.41293178078818016  0.6617482564187391  0.8497690281580284  1.0000
  C   C103      1.0  0.367422126895798  0.24466112834075243  0.04068360587235537  1.0000
  C   C104      1.0  0.632577872186585  0.7553388715458058  0.9593163939876701  1.0000
  C   C105      1.0  0.31780412192148244  0.8435397001938224  0.9894021855776418  1.0000
  C   C106      1.0  0.6821958782879812  0.15646029969641304  0.010597814284515977  1.0000
  C   C107      1.0  0.039259253799624555  0.7554877406630004  0.9857569779092558  1.0000
  C   C108      1.0  0.9607407452827585  0.24451225922355788  0.014243021950769751  1.0000
  C   C109      1.0  0.10858856090758724  0.4531157464576968  0.2224010101950188  1.0000
  C   C110      1.0  0.8914114396017343  0.5468842536462718  0.7775989902301654  1.0000
  C   C111      1.0  0.765775475369108  0.6214452297842917  0.2864201852197303  1.0000
  C   C112      1.0  0.23422452514021366  0.37855477031967694  0.713579815205454  1.0000
  N   N1        1.0  0.19216276824200595  0.07334201311487398  0.34013560585785346  1.0000
  N   N2        1.0  0.8078372322673156  0.9266579869890947  0.6598643945673308  1.0000
  N   N3        1.0  0.1520021737256878  0.25859302310756554  0.35719975727771186  1.0000
  N   N4        1.0  0.8479978268153971  0.7414069775007016  0.6428002425818127  1.0000
  N   N5        1.0  0.35226080744195326  0.10904915799628277  0.18907558875833283  1.0000
  N   N6        1.0  0.6477391930673683  0.8909508421076858  0.8109244116668514  1.0000
  P   P1        1.0  0.20832830379684594  0.005433571947626977  0.16714192752936938  1.0000
  P   P2        1.0  0.7916716967442392  0.9945664286606404  0.8328580723301552  1.0000
  P   P3        1.0  0.11805632324045702  0.2626806392308554  0.4384531226742354  1.0000
  P   P4        1.0  0.8819436758419261  0.7373193606557029  0.5615468771857901  1.0000
