data_image0
_chemical_formula_structural       H80C88N4O24Cl4
_chemical_formula_sum              "H80 C88 N4 O24 Cl4"
_cell_length_a       7.427439356560884
_cell_length_b       14.243292280813879
_cell_length_c       18.35617054350384
_cell_angle_alpha    72.34235994688358
_cell_angle_beta     85.10891318183769
_cell_angle_gamma    90.07048065867012

_space_group_name_H-M_alt    "P 1"
_space_group_IT_number       1

loop_
  _space_group_symop_operation_xyz
  'x, y, z'

loop_
  _atom_site_type_symbol
  _atom_site_label
  _atom_site_symmetry_multiplicity
  _atom_site_fract_x
  _atom_site_fract_y
  _atom_site_fract_z
  _atom_site_occupancy
  H   H1        1.0  0.5540379923768909  0.21327099396166582  0.4816477587517282  1.0000
  H   H2        1.0  0.4459620075116865  0.786729005913075  0.5183522409898021  1.0000
  H   H3        1.0  0.6345251985366275  0.048981826496057965  0.5618217821579792  1.0000
  H   H4        1.0  0.36547480135195004  0.9510181733786829  0.4381782175835513  1.0000
  H   H5        1.0  0.708401784619816  0.21722433126701202  0.794701299865059  1.0000
  H   H6        1.0  0.29159821526876145  0.7827756686077287  0.2052986998764714  1.0000
  H   H7        1.0  0.7167522265408933  0.9401702186924751  0.6861694481576492  1.0000
  H   H8        1.0  0.28324777334768386  0.05982978118226575  0.3138305515838812  1.0000
  H   H9        1.0  0.03844408300630004  0.011554715826590616  0.9067688108049691  1.0000
  H   H10       1.0  0.9615559167581332  0.988445284525459  0.09323118951077834  1.0000
  H   H11       1.0  0.8833169563254907  0.9610558448714214  0.9888178534017943  1.0000
  H   H12       1.0  0.11668304344985522  0.03894415477864882  0.011182146913759659  1.0000
  H   H13       1.0  0.6273910184748384  0.032848103232256315  0.9230780870411741  1.0000
  H   H14       1.0  0.37260898276077437  0.9671518966503946  0.07692191269683833  1.0000
  H   H15       1.0  0.7981100908156636  0.12760915062267647  0.8989788587201718  1.0000
  H   H16       1.0  0.20188990894876976  0.8723908497293732  0.10102114159557567  1.0000
  H   H17       1.0  0.9831868369803817  0.7932691720765527  0.008536177740011397  1.0000
  H   H18       1.0  0.01681316414199967  0.20673082758142763  0.9914638225720248  1.0000
  H   H19       1.0  0.7312984216039207  0.8072817895947286  0.759115497983639  1.0000
  H   H20       1.0  0.2687015782846567  0.19271821028001224  0.2408845017578915  1.0000
  H   H21       1.0  0.030044656768159903  0.5284753449734739  0.9030418257698387  1.0000
  H   H22       1.0  0.9699553431204174  0.4715246549012668  0.0969581739716917  1.0000
  H   H23       1.0  0.8010882177291129  0.5052787701389504  0.9509681099061802  1.0000
  H   H24       1.0  0.19891178203532048  0.4947212302130994  0.04903189040956718  1.0000
  H   H25       1.0  0.3698210510953058  0.3900565631365617  0.6695562394197583  1.0000
  H   H26       1.0  0.6301789486691276  0.609943437215488  0.3304437608959892  1.0000
  H   H27       1.0  0.50739924801619  0.43920057064825757  0.7256523562783623  1.0000
  H   H28       1.0  0.4926007517591562  0.5607994290018129  0.2743476440371916  1.0000
  H   H29       1.0  0.4334446256287576  0.31186534583314746  0.7597695348127477  1.0000
  H   H30       1.0  0.5665553741356758  0.6881346545189022  0.24023046550299973  1.0000
  H   H31       1.0  0.6199756194594693  0.3779732499815725  0.41486545058871743  1.0000
  H   H32       1.0  0.3800243803158767  0.6220267496684979  0.5851345497268365  1.0000
  H   H33       1.0  0.4681476810483043  0.4710673211778165  0.4295817648771349  1.0000
  H   H34       1.0  0.5318523188402732  0.5289326786969243  0.5704182348643955  1.0000
  H   H35       1.0  0.38791765209608187  0.346345852029111  0.4487518737215978  1.0000
  H   H36       1.0  0.6120823476683516  0.6536541483229389  0.5512481265941497  1.0000
  H   H37       1.0  0.8627809034638888  0.9804298692879146  0.49250975322468016  1.0000
  H   H38       1.0  0.13721909631145712  0.01957013036215576  0.5074902470908738  1.0000
  H   H39       1.0  0.6563033284982007  0.9891789016130819  0.45103764766748533  1.0000
  H   H40       1.0  0.3436966713903765  0.010821098261658892  0.5489623520740451  1.0000
  H   H41       1.0  0.5377674091478613  0.21136697791767597  0.9843606938810384  1.0000
  H   H42       1.0  0.4622325907298035  0.7886330226590441  0.01563930586068547  1.0000
  H   H43       1.0  0.6162239995095731  0.048359315149076196  0.06798744494677608  1.0000
  H   H44       1.0  0.38377600036809173  0.9516406854276438  0.9320125547949479  1.0000
  H   H45       1.0  0.791872444677204  0.23659561333195586  0.27856434321697365  1.0000
  H   H46       1.0  0.20812755655840878  0.7634043865506948  0.7214356565210389  1.0000
  H   H47       1.0  0.6990954928555101  0.9442829951471827  0.19404355436012385  1.0000
  H   H48       1.0  0.3009045083691898  0.055717005437447224  0.8059564453780822  1.0000
  H   H49       1.0  0.8284067772436235  0.1457923876171294  0.392115589021579  1.0000
  H   H50       1.0  0.17159322253172243  0.854207612032941  0.6078844112939751  1.0000
  H   H51       1.0  0.02082642229501191  0.0833873400110978  0.3690557450407239  1.0000
  H   H52       1.0  0.9791735774694214  0.9166126603409518  0.6309442552750235  1.0000
  H   H53       1.0  0.9066220337853799  0.8009323775194005  0.5247194299983706  1.0000
  H   H54       1.0  0.09337796597905354  0.19906762283264928  0.4752805703173768  1.0000
  H   H55       1.0  0.8402214154977665  0.8283809503732064  0.24796698733411138  1.0000
  H   H56       1.0  0.15977858427757952  0.17161904927686394  0.7520330129814425  1.0000
  H   H57       1.0  0.10494192085382277  0.5509009766346564  0.41289672534928146  1.0000
  H   H58       1.0  0.8950580790347545  0.44909902324008444  0.587103274392249  1.0000
  H   H59       1.0  0.8631280025225639  0.5226590408224226  0.4374160032126865  1.0000
  H   H60       1.0  0.13687199724186935  0.47734095952962713  0.562583997103061  1.0000
  H   H61       1.0  0.4346427237367991  0.3989678588315724  0.18165783406374103  1.0000
  H   H62       1.0  0.5653572761517783  0.6010321410431685  0.8183421656777894  1.0000
  H   H63       1.0  0.6110346887684073  0.4595316687478505  0.2130011683064407  1.0000
  H   H64       1.0  0.38896531112017024  0.5404683311268903  0.7869988314350896  1.0000
  H   H65       1.0  0.5506374672505705  0.33210783026969093  0.2622479076466453  1.0000
  H   H66       1.0  0.44936253252477554  0.6678921693803797  0.7377520926689086  1.0000
  H   H67       1.0  0.5924759022921838  0.3721539869453244  0.9089206201449925  1.0000
  H   H68       1.0  0.40752409893251607  0.6278460136393057  0.09107937959321348  1.0000
  H   H69       1.0  0.45272401958526653  0.46827336997009505  0.9270780814066835  1.0000
  H   H70       1.0  0.5472759802923982  0.531726630606625  0.07292191833504044  1.0000
  H   H71       1.0  0.3692651764477896  0.34307793262563346  0.9558916641251324  1.0000
  H   H72       1.0  0.6307348234407878  0.6569220672491073  0.04410833561639789  1.0000
  H   H73       1.0  0.2393086443330428  0.5383855233506615  0.2194031166292007  1.0000
  H   H74       1.0  0.7606913555446219  0.46161447722605864  0.7805968831125232  1.0000
  H   H75       1.0  0.8383972747828368  0.4814850076491742  0.27356700104829823  1.0000
  H   H76       1.0  0.16160272509482795  0.518514992927546  0.7264329986934256  1.0000
  H   H77       1.0  0.807469879972355  0.7128141145311154  0.14483309367960334  1.0000
  H   H78       1.0  0.1925301199162224  0.2871858853436253  0.855166906061927  1.0000
  H   H79       1.0  0.2663384750091406  0.30257417975530987  0.3440196654666895  1.0000
  H   H80       1.0  0.7336615248685241  0.6974258208214102  0.6559803342750343  1.0000
  C   C1        1.0  0.6314504003205482  0.27244031262812307  0.6441811895940098  1.0000
  C   C2        1.0  0.36854959956802913  0.7275596872466177  0.35581881014752065  1.0000
  C   C3        1.0  0.5882046405679555  0.2852821778851595  0.5691807334663761  1.0000
  C   C4        1.0  0.4117953592073906  0.7147178217649107  0.43081926684917793  1.0000
  C   C5        1.0  0.589869161839551  0.20373883470377305  0.5398720844315902  1.0000
  C   C6        1.0  0.4101308380490265  0.7962611651709677  0.46012791530994035  1.0000
  C   C7        1.0  0.6332607325022876  0.11133360703077755  0.5845408959633058  1.0000
  C   C8        1.0  0.3667392672621457  0.8886663933212722  0.41545910435244165  1.0000
  C   C9        1.0  0.6742561677146465  0.09525515162097327  0.6609952173511373  1.0000
  C   C10       1.0  0.32574383216301817  0.9047448489557467  0.3390047823905866  1.0000
  C   C11       1.0  0.672112218124693  0.1772008169306275  0.6909235487050485  1.0000
  C   C12       1.0  0.327887781650653  0.822799182719443  0.30907645161050545  1.0000
  C   C13       1.0  0.7089576865744588  0.15919215557731684  0.7674568631421828  1.0000
  C   C14       1.0  0.29104231331411845  0.8408078442974238  0.23254313659934775  1.0000
  C   C15       1.0  0.7564633702387131  0.9877869674120673  0.7841415341957185  1.0000
  C   C16       1.0  0.24353662952572022  0.012213032939982297  0.21585846612002899  1.0000
  C   C17       1.0  0.7181611332633419  0.0024842144052963535  0.7090635714911074  1.0000
  C   C18       1.0  0.2818388665010915  0.9975157859467536  0.29093642882463994  1.0000
  C   C19       1.0  0.8060072664635051  0.892523186414614  0.8350838932457111  1.0000
  C   C20       1.0  0.19399273330092828  0.1074768139374356  0.1649161070700363  1.0000
  C   C21       1.0  0.8768875216514761  0.8870405009295143  0.9049000418255068  1.0000
  C   C22       1.0  0.12311247823710132  0.11295949894522644  0.09509995791602362  1.0000
  C   C23       1.0  0.9007400140113431  0.9794937385154387  0.9261031406679217  1.0000
  C   C24       1.0  0.09925998576400305  0.0205062611346317  0.07389685964763242  1.0000
  C   C25       1.0  0.7630342430347736  0.05533563176399515  0.8938475959531009  1.0000
  C   C26       1.0  0.23696575684289095  0.9446643688127249  0.10615240378862302  1.0000
  C   C27       1.0  0.9297501143069192  0.7970502523225641  0.9543144621673313  1.0000
  C   C28       1.0  0.07024988558165823  0.20294974755217704  0.045685537574199075  1.0000
  C   C29       1.0  0.9101460698721873  0.7144199111065879  0.9311719286931244  1.0000
  C   C30       1.0  0.0898539300163901  0.2855800887681531  0.06882807104840598  1.0000
  C   C31       1.0  0.8416595642093088  0.7194948286860711  0.8615255704171598  1.0000
  C   C32       1.0  0.1583404356683558  0.28050517189064905  0.13847442932456405  1.0000
  C   C33       1.0  0.7875987345053787  0.8062148099823975  0.8123337324667192  1.0000
  C   C34       1.0  0.212401265372286  0.19378519059432261  0.18766626727500466  1.0000
  C   C35       1.0  0.9058579505783431  0.5609864112117182  0.9201002713897114  1.0000
  C   C36       1.0  0.09414204918609044  0.4390135891403314  0.0798997289260362  1.0000
  C   C37       1.0  0.47695320111799905  0.37384893185501405  0.7088288271107033  1.0000
  C   C38       1.0  0.5230467986464342  0.6261510684970358  0.2911711732050442  1.0000
  C   C39       1.0  0.5034498264610667  0.39351798310966984  0.45021217049961104  1.0000
  C   C40       1.0  0.4965501733142792  0.6064820165404006  0.5497878298159429  1.0000
  C   C41       1.0  0.803711257509335  0.9858338349217196  0.4387155545838371  1.0000
  C   C42       1.0  0.19628874371536495  0.014166165662910466  0.5612844451543688  1.0000
  C   C43       1.0  0.6680093131867668  0.28238319969920983  0.1350354844880141  1.0000
  C   C44       1.0  0.33199068669089804  0.7176168008775103  0.8649645152537098  1.0000
  C   C45       1.0  0.6032664670553484  0.29020243974759896  0.064057199003064  1.0000
  C   C46       1.0  0.396733532833229  0.7097975601271419  0.9359428007384665  1.0000
  C   C47       1.0  0.5863739304926832  0.20506663840957204  0.040017365926173054  1.0000
  C   C48       1.0  0.41362606939589414  0.7949333614651688  0.9599826338153573  1.0000
  C   C49       1.0  0.6271598464301652  0.11350053631269331  0.08690996142828251  1.0000
  C   C50       1.0  0.372840153458412  0.8864994635620475  0.913090038313248  1.0000
  C   C51       1.0  0.6841347498328192  0.10211185088988087  0.16047672711887062  1.0000
  C   C52       1.0  0.3158652499425269  0.8978881487601895  0.8395232731966833  1.0000
  C   C53       1.0  0.7066017777032643  0.1881179655771043  0.184208827186434  1.0000
  C   C54       1.0  0.29339822207208166  0.8118820340729662  0.81579117312912  1.0000
  C   C55       1.0  0.7676772411850485  0.1751172475904477  0.25675557610395755  1.0000
  C   C56       1.0  0.23232275869261615  0.8248827529862724  0.7432444236377663  1.0000
  C   C57       1.0  0.7815254388442862  0.0004897264019754446  0.28247122770693295  1.0000
  C   C58       1.0  0.21847456104429117  0.9995102734727652  0.7175287720345975  1.0000
  C   C59       1.0  0.7202425353934208  0.009895245320642492  0.21160070236066358  1.0000
  C   C60       1.0  0.2797574644842438  0.9901047552560778  0.7883992973810603  1.0000
  C   C61       1.0  0.8282861480957193  0.906181985464841  0.335325482181712  1.0000
  C   C62       1.0  0.171713851792858  0.09381801440989994  0.6646745175598184  1.0000
  C   C63       1.0  0.8461124059957779  0.8972789179848963  0.41288993762498205  1.0000
  C   C64       1.0  0.15388759376865555  0.10272108236715351  0.5871100626907653  1.0000
  C   C65       1.0  0.8721553318118164  0.07981832639572593  0.37773260891248067  1.0000
  C   C66       1.0  0.12784466796352975  0.9201816732543445  0.6222673914030732  1.0000
  C   C67       1.0  0.8938386231683595  0.8078258078763885  0.4646605790835148  1.0000
  C   C68       1.0  0.10616137672021775  0.1921741919983523  0.5353394206580157  1.0000
  C   C69       1.0  0.9189003278967857  0.7289085677842684  0.4362407134590258  1.0000
  C   C70       1.0  0.08109967332791436  0.2710914328003617  0.5637592862791801  1.0000
  C   C71       1.0  0.8976881395085776  0.7371561413597585  0.3596883871150409  1.0000
  C   C72       1.0  0.10231186037999973  0.2628438585149823  0.6403116126264895  1.0000
  C   C73       1.0  0.8533643522729951  0.8238671163824423  0.3076200257894979  1.0000
  C   C74       1.0  0.14663564750235086  0.1761328832676282  0.6923799745260562  1.0000
  C   C75       1.0  0.9700818814385543  0.5807616277937021  0.4187888062011529  1.0000
  C   C76       1.0  0.029918118336791814  0.4192383718563683  0.581211194114401  1.0000
  C   C77       1.0  0.5650551663208924  0.38972300895489076  0.20641174618372274  1.0000
  C   C78       1.0  0.434944833567685  0.6102769909198501  0.7935882535578077  1.0000
  C   C79       1.0  0.4894480946113717  0.3910582418599024  0.948449072632448  1.0000
  C   C80       1.0  0.510551905266293  0.6089417587168177  0.05155092710927582  1.0000
  C   C81       1.0  0.028132687716855984  0.6398059739705876  0.17338738223289893  1.0000
  C   C82       1.0  0.9718673135187565  0.360194025912063  0.8266126175051136  1.0000
  C   C83       1.0  0.09328912463231001  0.5458115824650676  0.22287704145416481  1.0000
  C   C84       1.0  0.9067108752562674  0.45418841740967336  0.7771229582873656  1.0000
  C   C85       1.0  0.9843469302815038  0.4738516584451506  0.27003279845020567  1.0000
  C   C86       1.0  0.01565306959616082  0.5261483421315695  0.7299672012915183  1.0000
  C   C87       1.0  0.047505876708037346  0.3780563321995423  0.3173532541027077  1.0000
  C   C88       1.0  0.9524941231805399  0.6219436676751984  0.6826467456388228  1.0000
  N   N1        1.0  0.7474514352761339  0.06907315551131614  0.8113849765531884  1.0000
  N   N2        1.0  0.25254856449921204  0.9309268441387544  0.18861502376236555  1.0000
  N   N3        1.0  0.8028506714887456  0.08587388331815561  0.3030426805244608  1.0000
  N   N4        1.0  0.19714932828660042  0.9141261163319149  0.6969573197910932  1.0000
  O   O1        1.0  0.6435833931970207  0.351848625411785  0.6712939711621009  1.0000
  O   O2        1.0  0.3564166066915565  0.6481513744629558  0.3287060285794296  1.0000
  O   O3        1.0  0.5473294991202521  0.3780216388814959  0.5279765054074469  1.0000
  O   O4        1.0  0.45267050064418124  0.6219783614705537  0.47202349490830053  1.0000
  O   O5        1.0  0.8372097860408599  0.6272405320197406  0.8525762910800891  1.0000
  O   O6        1.0  0.16279021383680475  0.37275946855697945  0.14742370866163462  1.0000
  O   O7        1.0  0.9490701583109382  0.6191761772702333  0.9692161799820603  1.0000
  O   O8        1.0  0.05092984146440781  0.38082382237983703  0.030783820333493722  1.0000
  O   O9        1.0  0.7028611231527149  0.3658072567299836  0.15461319579538832  1.0000
  O   O10       1.0  0.2971388767358624  0.6341927431447572  0.8453868039461421  1.0000
  O   O11       1.0  0.5599491512369418  0.3816460047572625  0.02116992129977436  1.0000
  O   O12       1.0  0.44005084853840415  0.618353994892808  0.9788300790157797  1.0000
  O   O13       1.0  0.9335250876283782  0.6490966067124744  0.3461242154304226  1.0000
  O   O14       1.0  0.0664749122601991  0.3509033931622664  0.6538757843111078  1.0000
  O   O15       1.0  0.9674498806056717  0.6350336921670904  0.4742390743645761  1.0000
  O   O16       1.0  0.03255011916967431  0.36496630748298003  0.5257609259509779  1.0000
  O   O17       1.0  0.8495184973404064  0.6425467329846323  0.17143685956354301  1.0000
  O   O18       1.0  0.15048150253725823  0.3574532675920879  0.8285631401781809  1.0000
  O   O19       1.0  0.13481562846450582  0.7081724588713569  0.13736255644684578  1.0000
  O   O20       1.0  0.8651843714240716  0.2918275410033839  0.8626374432946846  1.0000
  O   O21       1.0  0.22595848333153962  0.3737855909375779  0.32002668312544674  1.0000
  O   O22       1.0  0.7740415177908417  0.6262144087204023  0.6799733171865894  1.0000
  O   O23       1.0  0.9392312406430848  0.3091663816720689  0.3500243970708917  1.0000
  O   O24       1.0  0.06076875923457989  0.6908336189046513  0.6499756026708321  1.0000
  Cl  Cl1       1.0  0.6835794168739981  0.8344586448946029  0.11270002651854574  1.0000
  Cl  Cl2       1.0  0.3164205830145793  0.16554135498013808  0.8872999732229847  1.0000
  Cl  Cl3       1.0  0.3888341975536163  0.17930924978826487  0.37487068104315907  1.0000
  Cl  Cl4       1.0  0.6111658022217298  0.8206907498618057  0.6251293192723949  1.0000
