data_image0
_chemical_formula_structural       H16C32N4F14I2
_chemical_formula_sum              "H16 C32 N4 F14 I2"
_cell_length_a       7.159415871520957
_cell_length_b       9.031639555570775
_cell_length_c       13.361520549087976
_cell_angle_alpha    109.55838499083566
_cell_angle_beta     102.54024955117062
_cell_angle_gamma    93.83331938463176

_space_group_name_H-M_alt    "P 1"
_space_group_IT_number       1

loop_
  _space_group_symop_operation_xyz
  'x, y, z'

loop_
  _atom_site_type_symbol
  _atom_site_label
  _atom_site_symmetry_multiplicity
  _atom_site_fract_x
  _atom_site_fract_y
  _atom_site_fract_z
  _atom_site_occupancy
  H   H1        1.0  0.4498482936894357  0.9772563295882604  0.2260746577334047  1.0000
  H   H2        1.0  0.550151706891034  0.02274367122221239  0.7739253427380625  1.0000
  H   H3        1.0  0.4609164009299441  0.6846648643623733  0.14692147094724534  1.0000
  H   H4        1.0  0.539083599562714  0.31533513533620317  0.8530785295199314  1.0000
  H   H5        1.0  0.32987031675617945  0.5436893265861746  0.942273865644205  1.0000
  H   H6        1.0  0.6701296834554697  0.4563106738037778  0.05772613400593146  1.0000
  H   H7        1.0  0.19315015735876825  0.6978802332938057  0.8294931494436052  1.0000
  H   H8        1.0  0.80684984313389  0.30211976640477095  0.17050685102357163  1.0000
  H   H9        1.0  0.16376435080751228  0.8431135791763796  0.7444416041599616  1.0000
  H   H10       1.0  0.836235649404137  0.15688642121357296  0.2555583954901749  1.0000
  H   H11       1.0  0.030876916656776686  0.013062522300167871  0.6425910124214043  1.0000
  H   H12       1.0  0.9691230820699354  0.9869374769719196  0.357408987224734  1.0000
  H   H13       1.0  0.9719757813025008  0.2883567992778171  0.7509165756533657  1.0000
  H   H14       1.0  0.02802421927796886  0.7116432015326556  0.24908342481810145  1.0000
  H   H15       1.0  0.050055062529616  0.3741187568758141  0.9544344206627724  1.0000
  H   H16       1.0  0.9499449365659164  0.6258812428167936  0.04556557980469635  1.0000
  C   C1        1.0  0.6179088804224082  0.48589937897560936  0.6751223531492798  1.0000
  C   C2        1.0  0.38209111867312434  0.5141006207169984  0.324877647318189  1.0000
  C   C3        1.0  0.4394730248895727  0.3915026815974894  0.6465121108485921  1.0000
  C   C4        1.0  0.5605269739249508  0.6084973187864943  0.3534878888018365  1.0000
  C   C5        1.0  0.3905201161116509  0.2491605198564155  0.5567164548463874  1.0000
  C   C6        1.0  0.6094798840999983  0.7508394805335369  0.4432835448037491  1.0000
  C   C7        1.0  0.5239393850509046  0.1994309992713898  0.4950701558782066  1.0000
  C   C8        1.0  0.47606061544175354  0.8005690004271866  0.5049298445889702  1.0000
  C   C9        1.0  0.7035363032571252  0.292979713580919  0.521943556706642  1.0000
  C   C10       1.0  0.29646369732334443  0.7070202872295537  0.47805644376482503  1.0000
  C   C11       1.0  0.747410005353743  0.4362486542750159  0.6112865637942754  1.0000
  C   C12       1.0  0.25258999522672665  0.5637513465354569  0.38871343667719166  1.0000
  C   C13       1.0  0.3944333937028098  0.9102892004948195  0.13859745098241133  1.0000
  C   C14       1.0  0.605566605480534  0.08971080030968437  0.8614025494893478  1.0000
  C   C15       1.0  0.40152030124419535  0.7480099769322137  0.09379758006452614  1.0000
  C   C16       1.0  0.5984796988796424  0.2519900223458426  0.9062024195813201  1.0000
  C   C17       1.0  0.32927601484915087  0.670571891664757  0.9810634828313405  1.0000
  C   C18       1.0  0.6707239857313189  0.32942810914571574  0.018936517640126712  1.0000
  C   C19       1.0  0.2525880784332187  0.7570863225853874  0.9174495657678245  1.0000
  C   C20       1.0  0.7474119216906191  0.2429136766926688  0.0825504338780217  1.0000
  C   C21       1.0  0.2507551081420793  0.9200132895620201  0.9680176391564604  1.0000
  C   C22       1.0  0.7492448923505789  0.0799867101365563  0.031982361310716224  1.0000
  C   C23       1.0  0.17195249345448696  0.017372669512100546  0.9037343155319746  1.0000
  C   C24       1.0  0.8280475067571623  0.9826273308778518  0.09626568411816191  1.0000
  C   C25       1.0  0.13228805240930935  0.959740831028124  0.7886701342232428  1.0000
  C   C26       1.0  0.8677119478023398  0.040259169361828495  0.21132986542689378  1.0000
  C   C27       1.0  0.0603103292241508  0.05618954946741185  0.7317399062033277  1.0000
  C   C28       1.0  0.9396896709874984  0.9438104509225407  0.26826009344680884  1.0000
  C   C29       1.0  0.02886192540475208  0.20766469886331979  0.7907020130376654  1.0000
  C   C30       1.0  0.9711380748068971  0.7923353015266328  0.20929798661247107  1.0000
  C   C31       1.0  0.07254282977273686  0.2570365919789393  0.9048898945769399  1.0000
  C   C32       1.0  0.9274571693227956  0.7429634077136683  0.09511010589052887  1.0000
  N   N1        1.0  0.3215209744510314  0.99446145664513  0.07762145068978474  1.0000
  N   N2        1.0  0.6784790242756809  0.005538542626957672  0.9223785489563537  1.0000
  N   N3        1.0  0.14269554816263882  0.16498675106790947  0.9603085856499288  1.0000
  N   N4        1.0  0.8573044520490104  0.8350132493220431  0.03969141400020769  1.0000
  F   F1        1.0  0.49028967821222197  0.7632495274348017  0.7192664003390243  1.0000
  F   F2        1.0  0.5097103223682476  0.236750473375671  0.28073360013244275  1.0000
  F   F3        1.0  0.8646760845385423  0.5414011327874532  0.8671705832486488  1.0000
  F   F4        1.0  0.13532391558529555  0.45859886649060316  0.13282941639719736  1.0000
  F   F5        1.0  0.3098051612803276  0.4337699499644244  0.7076473876260939  1.0000
  F   F6        1.0  0.6901948388435102  0.5662300493136319  0.2923526120197523  1.0000
  F   F7        1.0  0.21830929993120965  0.15620195767431205  0.5306807355374171  1.0000
  F   F8        1.0  0.7816907002804395  0.8437980427156404  0.46931926411271935  1.0000
  F   F9        1.0  0.47946293654277455  0.05824242355508521  0.4115410872909411  1.0000
  F   F10       1.0  0.5205370639498837  0.9417575761434912  0.5884589131762357  1.0000
  F   F11       1.0  0.8332041565799938  0.2437504752637029  0.4631935380212072  1.0000
  F   F12       1.0  0.16679584223452978  0.7562495251202809  0.5368064616292214  1.0000
  F   F13       1.0  0.9223179336234079  0.5258975667259996  0.6356471394237951  1.0000
  F   F14       1.0  0.07768206695706181  0.4741024340844732  0.364352861047672  1.0000
  I   I1        1.0  0.695892302467782  0.6960902592916416  0.8216848841966229  1.0000
  I   I2        1.0  0.3041076963467415  0.3039097410923422  0.17831511545380577  1.0000
