data_image0
_chemical_formula_structural       H24C40N8F2I2
_chemical_formula_sum              "H24 C40 N8 F2 I2"
_cell_length_a       7.374807814995694
_cell_length_b       10.170192838048749
_cell_length_c       11.694247202247807
_cell_angle_alpha    84.85972662506778
_cell_angle_beta     82.92054316299603
_cell_angle_gamma    81.54590463157363

_space_group_name_H-M_alt    "P 1"
_space_group_IT_number       1

loop_
  _space_group_symop_operation_xyz
  'x, y, z'

loop_
  _atom_site_type_symbol
  _atom_site_label
  _atom_site_symmetry_multiplicity
  _atom_site_fract_x
  _atom_site_fract_y
  _atom_site_fract_z
  _atom_site_occupancy
  H   H1        1.0  0.5121202634668093  0.8172376858036516  0.013313369436872918  1.0000
  H   H2        1.0  0.48787973629283743  0.18276231443985475  0.9866866305896761  1.0000
  H   H3        1.0  0.4608325779219974  0.9757379248456164  0.8403430504381167  1.0000
  H   H4        1.0  0.539167422046187  0.024262074404003423  0.159656949586459  1.0000
  H   H5        1.0  0.897624217532195  0.8997258097998703  0.8623555516431968  1.0000
  H   H6        1.0  0.10237578222745167  0.10027419044363632  0.13764444838335213  1.0000
  H   H7        1.0  0.9454086755393173  0.7404304247007293  0.034581153080747294  1.0000
  H   H8        1.0  0.05459132422032936  0.2595695755427772  0.9654188469458016  1.0000
  H   H9        1.0  0.020490828606399555  0.8498638349943134  0.4226099595624604  1.0000
  H   H10       1.0  0.9795091711532471  0.15013616524919304  0.5773900404640886  1.0000
  H   H11       1.0  0.9082995765715884  0.8675845111422668  0.6323767218275892  1.0000
  H   H12       1.0  0.09170042318805827  0.1324154891012395  0.36762327819895974  1.0000
  H   H13       1.0  0.001822723672266996  0.6742043098829541  0.7726017509944417  1.0000
  H   H14       1.0  0.998177277441714  0.32579569036512546  0.2273982490355801  1.0000
  H   H15       1.0  0.17131697855459552  0.4475260052883751  0.8071732510966418  1.0000
  H   H16       1.0  0.8286830214135888  0.5524739939612446  0.192826748927934  1.0000
  H   H17       1.0  0.34656558374044794  0.24190265729832733  0.7283486066767808  1.0000
  H   H18       1.0  0.6534344160191986  0.7580973429451793  0.27165139334976796  1.0000
  H   H19       1.0  0.502004338584025  0.12028774189772398  0.5612948411360075  1.0000
  H   H20       1.0  0.49799566252995603  0.8797122583503556  0.4387051588940144  1.0000
  H   H21       1.0  0.5864056558864735  0.11820680222996635  0.34703363725672803  1.0000
  H   H22       1.0  0.41359434387317306  0.8817931980135403  0.652966362769821  1.0000
  H   H23       1.0  0.48575066613813267  0.32115128276398086  0.22123586126099964  1.0000
  H   H24       1.0  0.5142493336215139  0.6788487174795256  0.7787641387655494  1.0000
  C   C1        1.0  0.23074675646508652  0.7724527843106523  0.03464447118630171  1.0000
  C   C2        1.0  0.7692532432945601  0.22754721593285404  0.9653555288402472  1.0000
  C   C3        1.0  0.37711085398676847  0.8366022511679114  0.9817754407843514  1.0000
  C   C4        1.0  0.622889145772878  0.1633977490755951  0.01822455924219749  1.0000
  C   C5        1.0  0.3492126226515309  0.9252541274230428  0.885427623827525  1.0000
  C   C6        1.0  0.6507873771081157  0.0747458728204636  0.114572376199024  1.0000
  C   C7        1.0  0.1764431054909015  0.9450948046477952  0.8458591501827344  1.0000
  C   C8        1.0  0.823556894268745  0.05490519559571126  0.15414084984381446  1.0000
  C   C9        1.0  0.030351941679560977  0.8803858321406629  0.8967712066103499  1.0000
  C   C10       1.0  0.9696480580800857  0.11961416810284368  0.10322879341619914  1.0000
  C   C11       1.0  0.05826750561449979  0.7925662723990323  0.9938419996186483  1.0000
  C   C12       1.0  0.9417324941451469  0.20743372784447406  0.0061580004079008046  1.0000
  C   C13       1.0  0.2764345039629805  0.8588415896023254  0.2518051796850798  1.0000
  C   C14       1.0  0.7235654973595383  0.1411584096518674  0.7481948203429688  1.0000
  C   C15       1.0  0.25973018975595524  0.48266210117608865  0.08242505793460363  1.0000
  C   C16       1.0  0.7402698100036914  0.5173378990674178  0.9175749420919452  1.0000
  C   C17       1.0  0.0559981694694649  0.7669946518258437  0.4855899437314018  1.0000
  C   C18       1.0  0.9440018302901818  0.23300534841766277  0.514410056295147  1.0000
  C   C19       1.0  0.9948857704410747  0.7776128860713222  0.603525250356755  1.0000
  C   C20       1.0  0.005114229318571855  0.2223871141721842  0.39647474966979396  1.0000
  C   C21       1.0  0.045376604215726285  0.6711240084147734  0.6802159611135521  1.0000
  C   C22       1.0  0.9546233955439203  0.328875991828733  0.3197840389129968  1.0000
  C   C23       1.0  0.1529141948771985  0.5550557664106626  0.6387095255438432  1.0000
  C   C24       1.0  0.8470858050909859  0.4449442328389573  0.36129047448073254  1.0000
  C   C25       1.0  0.2079371802929283  0.44173340620133944  0.7142839636712247  1.0000
  C   C26       1.0  0.7920628210295907  0.5582665930528534  0.2857160363568238  1.0000
  C   C27       1.0  0.3064158546667684  0.329186359451869  0.6712336675345388  1.0000
  C   C28       1.0  0.6935841464472126  0.6708136407962108  0.328766332495483  1.0000
  C   C29       1.0  0.3586310086197836  0.32187200915268965  0.5498269542321645  1.0000
  C   C30       1.0  0.6413689924941975  0.67812799109539  0.4501730457978573  1.0000
  C   C31       1.0  0.46018489152891107  0.206405450733651  0.503247781351614  1.0000
  C   C32       1.0  0.5398151082307355  0.7935945495098556  0.49675221867493496  1.0000
  C   C33       1.0  0.5077698077045667  0.2054117672206909  0.38550985057540954  1.0000
  C   C34       1.0  0.4922301920550798  0.7945882330228157  0.6144901494511394  1.0000
  C   C35       1.0  0.4515078067926477  0.31972082056645357  0.31487868445927036  1.0000
  C   C36       1.0  0.5484921931755367  0.6802791786831662  0.6851213155653053  1.0000
  C   C37       1.0  0.30912616846194446  0.43339519172687363  0.4714163133736747  1.0000
  C   C38       1.0  0.6908738312977021  0.566604808516633  0.5285836866528743  1.0000
  C   C39       1.0  0.2048143250847192  0.553077023106678  0.517199355876822  1.0000
  C   C40       1.0  0.7951856746749274  0.4469229771368286  0.48280064414972707  1.0000
  N   N1        1.0  0.30007725867153345  0.9625582537945522  0.27919011535054805  1.0000
  N   N2        1.0  0.6999227412966509  0.037441745455067704  0.7208098846740276  1.0000
  N   N3        1.0  0.25995514956989313  0.39613267973402716  0.022606155860674475  1.0000
  N   N4        1.0  0.7400448501897536  0.6038673205094792  0.9773938441658745  1.0000
  N   N5        1.0  0.15848549634707643  0.6597324548117796  0.4434325792724941  1.0000
  N   N6        1.0  0.8415145034125702  0.3402675454317268  0.556567420754055  1.0000
  N   N7        1.0  0.35470417638663554  0.4297829828280991  0.3555789279495643  1.0000
  N   N8        1.0  0.6452958247273456  0.5702170174199804  0.6444210720804575  1.0000
  F   F1        1.0  0.15104953042476835  0.03252117512831416  0.7512416543179261  1.0000
  F   F2        1.0  0.8489504693348784  0.9674788251151922  0.24875834570862293  1.0000
  I   I1        1.0  0.26292888862158914  0.6538890456923961  0.19321344977365656  1.0000
  I   I2        1.0  0.7370711124923919  0.3461109545556835  0.8067865502563651  1.0000
