data_image0
_chemical_formula_structural       H144C96N8O28Cl4
_chemical_formula_sum              "H144 C96 N8 O28 Cl4"
_cell_length_a       9.210711246293593
_cell_length_b       13.813461571940458
_cell_length_c       18.485223403291187
_cell_angle_alpha    90.0
_cell_angle_beta     90.0
_cell_angle_gamma    90.0

_space_group_name_H-M_alt    "P 1"
_space_group_IT_number       1

loop_
  _space_group_symop_operation_xyz
  'x, y, z'

loop_
  _atom_site_type_symbol
  _atom_site_label
  _atom_site_symmetry_multiplicity
  _atom_site_fract_x
  _atom_site_fract_y
  _atom_site_fract_z
  _atom_site_occupancy
  H   H1        1.0  0.9974384761759753  0.4143431695373359  0.5449345090525939  1.0000
  H   H2        1.0  0.5025615238847811  0.5856568303221883  0.044934509141615904  1.0000
  H   H3        1.0  0.49743847651762063  0.08565683003046039  0.45506549076936204  1.0000
  H   H4        1.0  0.002561523140734006  0.9143431698290637  0.9550654912213125  1.0000
  H   H5        1.0  0.5958596620004235  0.49229094348178865  0.4742166150093304  1.0000
  H   H6        1.0  0.904140338060333  0.5077090571016669  0.9742166149203084  1.0000
  H   H7        1.0  0.09585966234206884  0.007709056809939125  0.525783385353598  1.0000
  H   H8        1.0  0.4041403373162858  0.992290943049585  0.02578338544262019  1.0000
  H   H9        1.0  0.48785521333199855  0.9173715874188282  0.43936215445218685  1.0000
  H   H10       1.0  0.012144786326356015  0.08262841244069592  0.9393621543631647  1.0000
  H   H11       1.0  0.9878552140760457  0.5826284127324238  0.560637845369769  1.0000
  H   H12       1.0  0.5121447859847106  0.4173715878510319  0.06063784545879113  1.0000
  H   H13       1.0  0.3375459980086861  0.9495750584809706  0.4729560281345268  1.0000
  H   H14       1.0  0.16245400273536104  0.050424941378553564  0.9729560280455047  1.0000
  H   H15       1.0  0.8375459976670407  0.5504249416702814  0.527043971687429  1.0000
  H   H16       1.0  0.6624540023937157  0.44957505818924276  0.02704397177645109  1.0000
  H   H17       1.0  0.3156874450026936  0.5228882436443016  0.5378768318390865  1.0000
  H   H18       1.0  0.18431255574135355  0.4771117562152225  0.037876831928108604  1.0000
  H   H19       1.0  0.8156874446610481  0.9771117565069504  0.46212316798286934  1.0000
  H   H20       1.0  0.6843125553997083  0.022888243352573813  0.9621231678938472  1.0000
  H   H21       1.0  0.42469471850766044  0.6087651785329227  0.5201595534024251  1.0000
  H   H22       1.0  0.0753052811506942  0.3912348213266014  0.020159553491447182  1.0000
  H   H23       1.0  0.9246947181660151  0.8912348216183292  0.4798404464195308  1.0000
  H   H24       1.0  0.5753052818947413  0.10876517896512639  0.9798404463305087  1.0000
  H   H25       1.0  0.5835510881054791  0.7651361532339852  0.421719022806727  1.0000
  H   H26       1.0  0.9164489119552772  0.23486384662553897  0.9217190227177049  1.0000
  H   H27       1.0  0.08355108844712446  0.7348638469172668  0.5782809775562014  1.0000
  H   H28       1.0  0.4164489112112302  0.26513615366618887  0.07828097710425089  1.0000
  H   H29       1.0  0.6892614935198065  0.851736142220812  0.4232219313404185  1.0000
  H   H30       1.0  0.8107385065409499  0.14826385763871208  0.9232219312513965  1.0000
  H   H31       1.0  0.1892614938614518  0.6482638579304398  0.5767780684815373  1.0000
  H   H32       1.0  0.3107385057969028  0.35173614192908426  0.0767780685705594  1.0000
  H   H33       1.0  0.26101976120111736  0.24713300082105694  0.9031163300427127  1.0000
  H   H34       1.0  0.23898023954292977  0.7528669990384671  0.4031163301317348  1.0000
  H   H35       1.0  0.7610197608594721  0.25286699874673935  0.09688367032021576  1.0000
  H   H36       1.0  0.7389802392012844  0.7471330011127848  0.5968836702311937  1.0000
  H   H37       1.0  0.5147117897011191  0.26030031077104576  0.9350760005920454  1.0000
  H   H38       1.0  0.9852882103596373  0.7396996890884784  0.43507600068106744  1.0000
  H   H39       1.0  0.014711790042764381  0.2396996887967505  0.06492399922991048  1.0000
  H   H40       1.0  0.48528821070128275  0.7603003110627735  0.5649239991408884  1.0000
  H   H41       1.0  0.6145528970173485  0.3613648030222729  0.9019157830157264  1.0000
  H   H42       1.0  0.8854471030434079  0.6386351975611827  0.40191578310474846  1.0000
  H   H43       1.0  0.11455289735899381  0.1386351972694549  0.09808421680622949  1.0000
  H   H44       1.0  0.38544710229936086  0.8613648025900692  0.5980842167172075  1.0000
  H   H45       1.0  0.5793408193256815  0.19521570215807912  0.8190811768768914  1.0000
  H   H46       1.0  0.9206591807350749  0.804784297701445  0.3190811769659135  1.0000
  H   H47       1.0  0.07934081966732692  0.30478429740971713  0.18091882294506445  1.0000
  H   H48       1.0  0.42065918107672023  0.6952157024498069  0.6809188228560423  1.0000
  H   H49       1.0  0.5787873778092025  0.3091247069216812  0.7763207929337216  1.0000
  H   H50       1.0  0.921212622251554  0.690875292937843  0.2763207930227436  1.0000
  H   H51       1.0  0.07878737815084781  0.1908752926461151  0.22367920688823434  1.0000
  H   H52       1.0  0.4212126215075068  0.809124707213409  0.7236792073401849  1.0000
  H   H53       1.0  0.41910043608775127  0.07074302157433274  0.8684924606938551  1.0000
  H   H54       1.0  0.08089956465629586  0.9292569782851914  0.36849246024190446  1.0000
  H   H55       1.0  0.9191004357461059  0.4292569779934635  0.13150753966907341  1.0000
  H   H56       1.0  0.5808995643146505  0.5707430218660605  0.6315075395800513  1.0000
  H   H57       1.0  0.3391031687435489  0.9103808958027486  0.8194585269282172  1.0000
  H   H58       1.0  0.16089683091480572  0.08961910478070688  0.3194585270172392  1.0000
  H   H59       1.0  0.839103169487596  0.5896191043485032  0.1805414728937387  1.0000
  H   H60       1.0  0.6608968305731603  0.4103808955110209  0.6805414728047167  1.0000
  H   H61       1.0  0.19196433399337082  0.9014314590988369  0.7071798811840456  1.0000
  H   H62       1.0  0.30803566566498386  0.09856854148461876  0.20717988073209506  1.0000
  H   H63       1.0  0.6919643336517254  0.5985685410524151  0.29282011917888284  1.0000
  H   H64       1.0  0.8080356664090309  0.401431458807109  0.7928201190898608  1.0000
  H   H65       1.0  0.12110230037325884  0.0517723530974096  0.6413335685133917  1.0000
  H   H66       1.0  0.3788976992850958  0.9482276467621145  0.1413335686024138  1.0000
  H   H67       1.0  0.6211023000316135  0.4482276471943182  0.3586664313085641  1.0000
  H   H68       1.0  0.8788976989434504  0.5517723526652059  0.8586664317605147  1.0000
  H   H69       1.0  0.07555000600849571  0.37486422451259566  0.8878503078885115  1.0000
  H   H70       1.0  0.4244499936498589  0.6251357753469284  0.38785030743656107  1.0000
  H   H71       1.0  0.5755500056668503  0.12513577577913218  0.11214969247441685  1.0000
  H   H72       1.0  0.9244499933082134  0.874864224080392  0.6121496923853949  1.0000
  H   H73       1.0  0.06905731631267395  0.29926744780593645  0.8108814647774957  1.0000
  H   H74       1.0  0.4309426833456807  0.7007325527775191  0.31088146486651774  1.0000
  H   H75       1.0  0.5690573159710286  0.20073255248579136  0.18911853558543282  1.0000
  H   H76       1.0  0.9309426840897278  0.7992674473737327  0.6891185354964107  1.0000
  H   H77       1.0  0.07235033779483205  0.4759330972733485  0.777107159410494  1.0000
  H   H78       1.0  0.4276496618635226  0.5240669025861756  0.27710715949951614  1.0000
  H   H79       1.0  0.5723503385388792  0.024066902294447776  0.22289284041146173  1.0000
  H   H80       1.0  0.9276496615218773  0.9759330975650763  0.7228928408634123  1.0000
  H   H81       1.0  0.3413906804716446  0.45418373427441155  0.7090263105863499  1.0000
  H   H82       1.0  0.15860931918671  0.5458162655851125  0.20902631067537195  1.0000
  H   H83       1.0  0.8413906812156918  0.04581626601731628  0.29097368923560596  1.0000
  H   H84       1.0  0.6586093188450646  0.9541837338422079  0.7909736896875565  1.0000
  H   H85       1.0  0.031412435181531424  0.3858583109122341  0.6820660380958768  1.0000
  H   H86       1.0  0.46858756447682326  0.61414168894729  0.18206603818489892  1.0000
  H   H87       1.0  0.531412434839886  0.11414168865556215  0.317933961726079  1.0000
  H   H88       1.0  0.9685875652208704  0.885858311203962  0.8179339616370569  1.0000
  H   H89       1.0  0.11760495373643287  0.4899903036432883  0.6470478813834863  1.0000
  H   H90       1.0  0.38239504700761423  0.5100096962162358  0.14704788147250836  1.0000
  H   H91       1.0  0.6176049533947875  0.01000969592450798  0.3529521184384696  1.0000
  H   H92       1.0  0.8823950466659688  0.9899903039350161  0.8529521183494475  1.0000
  H   H93       1.0  0.07283543171217724  0.6472351042088625  0.7653631471654839  1.0000
  H   H94       1.0  0.42716456794617735  0.3527648956506616  0.265363147254506  1.0000
  H   H95       1.0  0.572835431370532  0.8527648959423895  0.23463685265647188  1.0000
  H   H96       1.0  0.9271645686902246  0.14723510391713468  0.7346368525674498  1.0000
  H   H97       1.0  0.19212064656918618  0.7465831092583469  0.7730052122310784  1.0000
  H   H98       1.0  0.3078793530891685  0.25341689060117717  0.27300521177912784  1.0000
  H   H99       1.0  0.6921206473132333  0.753416890892905  0.2269947881318501  1.0000
  H   H100      1.0  0.8078793527475231  0.24658310969055064  0.726994788042828  1.0000
  H   H101      1.0  0.11841741542368979  0.6933113571947815  0.8522831661961401  1.0000
  H   H102      1.0  0.3815825853203573  0.30668864266474255  0.35228316628516215  1.0000
  H   H103      1.0  0.6184174150820444  0.8066886429564704  0.14771683362581575  1.0000
  H   H104      1.0  0.881582584978712  0.19331135690305376  0.6477168335367937  1.0000
  H   H105      1.0  0.38100273976259447  0.6456430992008874  0.8300974754391118  1.0000
  H   H106      1.0  0.1189972598957602  0.3543569006586367  0.33009747498716124  1.0000
  H   H107      1.0  0.8810027394209491  0.854356900226433  0.1699025249238167  1.0000
  H   H108      1.0  0.6189972606398073  0.14564309963309116  0.6699025248347946  1.0000
  H   H109      1.0  0.3320708410255277  0.5944957002436868  0.7470642674267747  1.0000
  H   H110      1.0  0.16792915971851943  0.4055043003397689  0.24706426751579671  1.0000
  H   H111      1.0  0.8320708406838824  0.9055042999075652  0.25293573293615385  1.0000
  H   H112      1.0  0.667929159376874  0.0944956999519589  0.7529357328471318  1.0000
  H   H113      1.0  0.19170587295422378  0.5273091984992418  0.8875595605232922  1.0000
  H   H114      1.0  0.3082941267041308  0.4726908013602823  0.3875595606123142  1.0000
  H   H115      1.0  0.6917058726125784  0.97269080165201  0.11244043929866368  1.0000
  H   H116      1.0  0.8082941263624854  0.02730919820751401  0.6124404392096416  1.0000
  H   H117      1.0  0.449150564964756  0.5094615475888576  0.9097077797288607  1.0000
  H   H118      1.0  0.05084943469359857  0.490538452994598  0.4097077798178828  1.0000
  H   H119      1.0  0.9491505657088033  0.9905384525623943  0.0902922200930951  1.0000
  H   H120      1.0  0.5508494343519532  0.009461547297129828  0.590292220004073  1.0000
  H   H121      1.0  0.4821567587179621  0.469775397441412  0.8204169362270112  1.0000
  H   H122      1.0  0.017843240940392555  0.5302246024181122  0.3204169363160333  1.0000
  H   H123      1.0  0.9821567594620091  0.03022460285031585  0.17958306359494464  1.0000
  H   H124      1.0  0.5178432405987472  0.9697753977331398  0.6795830640468952  1.0000
  H   H125      1.0  0.16574734883957273  0.19475041473055582  0.5815176373841453  1.0000
  H   H126      1.0  0.3342526508187819  0.8052495851289683  0.08151763747316737  1.0000
  H   H127      1.0  0.6657473495836199  0.305249585561172  0.41848236243781056  1.0000
  H   H128      1.0  0.8342526504771365  0.6947504150222836  0.9184823623487886  1.0000
  H   H129      1.0  0.4383495348010939  0.18902620942631707  0.5925509035530404  1.0000
  H   H130      1.0  0.061650465942953286  0.810973790433207  0.09255090310108981  1.0000
  H   H131      1.0  0.9383495344594485  0.31097379014147924  0.4074490968098881  1.0000
  H   H132      1.0  0.5616504656013079  0.689026209718045  0.907449096720866  1.0000
  H   H133      1.0  0.3818090260309853  0.28962380350242634  0.49045253455718746  1.0000
  H   H134      1.0  0.11819097362736931  0.7103761963570979  0.9904525344681653  1.0000
  H   H135      1.0  0.8818090267750324  0.21037619606537  0.5095474652647685  1.0000
  H   H136      1.0  0.6181909732857239  0.7896238037941541  0.009547465353790504  1.0000
  H   H137      1.0  0.5552546935024154  0.43290483915683464  0.579998465590149  1.0000
  H   H138      1.0  0.9447453065583409  0.5670951607026895  0.07999846513819844  1.0000
  H   H139      1.0  0.05525469384406077  0.06709516041096168  0.42000153477277946  1.0000
  H   H140      1.0  0.44474530689998637  0.9329048394485624  0.9200015346837574  1.0000
  H   H141      1.0  0.6324358124182933  0.32508496777677615  0.5435425561700866  1.0000
  H   H142      1.0  0.867564187642463  0.674915032082748  0.04354255625910874  1.0000
  H   H143      1.0  0.13243581167424623  0.17491503251495163  0.45645744419284184  1.0000
  H   H144      1.0  0.36756418798410845  0.8250849673445726  0.9564574441038198  1.0000
  C   C1        1.0  0.31368018524765134  0.30249157231434115  0.7225731725601908  1.0000
  C   C2        1.0  0.1863198144107033  0.6975084282691145  0.2225731726492129  1.0000
  C   C3        1.0  0.8136801859916984  0.19750842797738663  0.277426827261765  1.0000
  C   C4        1.0  0.686319814069058  0.8024915718821375  0.7774268271727429  1.0000
  C   C5        1.0  0.27712415162587306  0.30401048051057633  0.8621294935046645  1.0000
  C   C6        1.0  0.22287584911817407  0.6959895193489477  0.3621294930527139  1.0000
  C   C7        1.0  0.7771241512842277  0.19598951978115148  0.13787050685826402  1.0000
  C   C8        1.0  0.7228758487765287  0.8040104800783726  0.637870506769242  1.0000
  C   C9        1.0  0.5212768842288986  0.3143182776733984  0.8915817277634654  1.0000
  C   C10       1.0  0.9787231158318578  0.6856817221861257  0.39158172731151475  1.0000
  C   C11       1.0  0.021276883484851485  0.18568172189439786  0.10841827259946316  1.0000
  C   C12       1.0  0.47872311617350316  0.8143182779651263  0.608418272510441  1.0000
  C   C13       1.0  0.5227667442009526  0.26469685465569853  0.8166257718752986  1.0000
  C   C14       1.0  0.9772332558598038  0.7353031452038257  0.31662577196432073  1.0000
  C   C15       1.0  0.022766744542597923  0.2353031456360293  0.1833742279466572  1.0000
  C   C16       1.0  0.4772332562014492  0.7646968549474263  0.6833742283986077  1.0000
  C   C17       1.0  0.3607934035862048  0.252898944396112  0.7952935990691106  1.0000
  C   C18       1.0  0.1392065960721498  0.7471010554634121  0.29529359915813264  1.0000
  C   C19       1.0  0.8607934032445594  0.24710105589561582  0.20470640075284527  1.0000
  C   C20       1.0  0.639206596816197  0.7528989446878398  0.7047064006638232  1.0000
  C   C21       1.0  0.31551237057501036  0.15048449870252117  0.7826175677933251  1.0000
  C   C22       1.0  0.18448762908334423  0.849515501157003  0.2826175673413746  1.0000
  C   C23       1.0  0.815512370233365  0.34951550158920663  0.21738243256960335  1.0000
  C   C24       1.0  0.6844876298273914  0.6504844982703175  0.7173824324805813  1.0000
  C   C25       1.0  0.3531621123514172  0.06634369562091327  0.8195971360185214  1.0000
  C   C26       1.0  0.14683788730693745  0.9336563042386108  0.31959713610754337  1.0000
  C   C27       1.0  0.8531621130954643  0.4336563046708145  0.18040286434440717  1.0000
  C   C28       1.0  0.646837886965292  0.566343695912641  0.680402864255385  1.0000
  C   C29       1.0  0.3081553773756776  0.9770632226911136  0.7920683088630217  1.0000
  C   C30       1.0  0.19184462228267704  0.02293677716841052  0.2920683089520438  1.0000
  C   C31       1.0  0.8081553770340322  0.5229367774601383  0.20793169095893416  1.0000
  C   C32       1.0  0.6918446230267242  0.47706322239938576  0.707931690869912  1.0000
  C   C33       1.0  0.22488670142965578  0.9719181531783154  0.7281851225884242  1.0000
  C   C34       1.0  0.2751132993143913  0.028081846681208694  0.22818512267744623  1.0000
  C   C35       1.0  0.7248867010880105  0.5280818469729365  0.2718148777745043  1.0000
  C   C36       1.0  0.775113298972746  0.47191815361051914  0.7718148776854822  1.0000
  C   C37       1.0  0.18395408722445933  0.05501905702939874  0.6910340308749353  1.0000
  C   C38       1.0  0.31604591351958783  0.9449809435540569  0.19103403042298484  1.0000
  C   C39       1.0  0.6839540868828139  0.44498094326232907  0.30896596948799304  1.0000
  C   C40       1.0  0.8160459131779425  0.5550190565971951  0.808965969398971  1.0000
  C   C41       1.0  0.229721754750638  0.14407272497449986  0.7192029790471977  1.0000
  C   C42       1.0  0.2702782459934091  0.8559272756089558  0.2192029791362198  1.0000
  C   C43       1.0  0.7297217544089926  0.35592727531722795  0.2807970207747581  1.0000
  C   C44       1.0  0.7702782456517638  0.6440727245422961  0.7807970212267087  1.0000
  C   C45       1.0  0.13690345580070376  0.35227656041587135  0.8397529789786699  1.0000
  C   C46       1.0  0.36309654385765083  0.6477234394436528  0.339752979067692  1.0000
  C   C47       1.0  0.6369034554590585  0.14772343915192498  0.16024702084328596  1.0000
  C   C48       1.0  0.8630965446016979  0.8522765607075992  0.6602470207542639  1.0000
  C   C49       1.0  0.17362464496360402  0.439838627584969  0.7928126487987538  1.0000
  C   C50       1.0  0.3263753546947506  0.5601613722745551  0.29281264888777586  1.0000
  C   C51       1.0  0.6736246457076512  0.06016137198282728  0.20718735102320202  1.0000
  C   C52       1.0  0.8263753543531052  0.9398386278766968  0.7071873514751525  1.0000
  C   C53       1.0  0.2494068078536718  0.4064625322739633  0.7217612570278458  1.0000
  C   C54       1.0  0.25059319180468287  0.5935374683094923  0.22176125711686787  1.0000
  C   C55       1.0  0.7494068085977189  0.09353746801776454  0.27823874333508264  1.0000
  C   C56       1.0  0.7505931914630375  0.9064625318417595  0.7782387432460606  1.0000
  C   C57       1.0  0.13505974041913282  0.41366670911853826  0.6609597089221361  1.0000
  C   C58       1.0  0.3649402592392218  0.5863332914649174  0.16095970901115816  1.0000
  C   C59       1.0  0.63505974116318  0.08633329117318954  0.3390402914407924  1.0000
  C   C60       1.0  0.8649402588975764  0.9136667086863346  0.8390402913517703  1.0000
  C   C61       1.0  0.16127136659481506  0.677489832744752  0.798045685905721  1.0000
  C   C62       1.0  0.33872863306353956  0.3225101671147721  0.298045685994743  1.0000
  C   C63       1.0  0.6612713673388622  0.8225101674065  0.2019543139162349  1.0000
  C   C64       1.0  0.8387286327218942  0.1774898324530242  0.7019543138272127  1.0000
  C   C65       1.0  0.2910351381473059  0.609139949184945  0.8019117100505672  1.0000
  C   C66       1.0  0.20896486151104873  0.39086005067457924  0.3019117095986166  1.0000
  C   C67       1.0  0.791035138891353  0.8908600509663069  0.1980882903123613  1.0000
  C   C68       1.0  0.7089648611694034  0.1091399496171486  0.6980882902233392  1.0000
  C   C69       1.0  0.2591690539599302  0.5125820405786495  0.8394786355266401  1.0000
  C   C70       1.0  0.24083094569842448  0.48741795928087456  0.33947863507468956  1.0000
  C   C71       1.0  0.7591690547039773  0.9874179595726025  0.16052136483628834  1.0000
  C   C72       1.0  0.7408309453567792  0.01258204028692173  0.6605213647472663  1.0000
  C   C73       1.0  0.40049154960583355  0.4676307945230402  0.8649257691499346  1.0000
  C   C74       1.0  0.09950845005252106  0.5323692053364839  0.36492576923895664  1.0000
  C   C75       1.0  0.9004915492641882  0.03236920504475613  0.13507423067202126  1.0000
  C   C76       1.0  0.5995084507965681  0.967630794814768  0.6350742311239719  1.0000
  C   C77       1.0  0.16517702263353584  0.35477958761292333  0.5927104650544435  1.0000
  C   C78       1.0  0.3348229781105113  0.6452204129705322  0.09271046460249285  1.0000
  C   C79       1.0  0.6651770222918905  0.14522041267880445  0.40728953530848505  1.0000
  C   C80       1.0  0.8348229777688659  0.8547795871807197  0.9072895352194629  1.0000
  C   C81       1.0  0.21954932316586726  0.2516962364497021  0.6128385858719475  1.0000
  C   C82       1.0  0.2804506764924874  0.7483037641337534  0.11283858541999699  1.0000
  C   C83       1.0  0.7195493228242219  0.24830376384202565  0.38716141449098096  1.0000
  C   C84       1.0  0.7804506772365346  0.7516962360174985  0.8871614144019588  1.0000
  C   C85       1.0  0.3843743512668088  0.25856371420000757  0.6030197275308747  1.0000
  C   C86       1.0  0.11562564839154585  0.7414362856595166  0.10301972761989682  1.0000
  C   C87       1.0  0.8843743520108559  0.24143628536778874  0.3969802722910811  1.0000
  C   C88       1.0  0.6156256480499005  0.7585637144917354  0.8969802727430317  1.0000
  C   C89       1.0  0.40050976101161045  0.32938455406734396  0.5414309122289563  1.0000
  C   C90       1.0  0.09949023864674417  0.6706154457921801  0.04143091231797843  1.0000
  C   C91       1.0  0.900509760669965  0.17061544622438382  0.45856908759299947  1.0000
  C   C92       1.0  0.5994902393907913  0.8293845536351402  0.95856908804495  1.0000
  C   C93       1.0  0.5458950004564858  0.37963104633036177  0.5362125922825052  1.0000
  C   C94       1.0  0.9541049996042705  0.6203689535291623  0.03621259237152728  1.0000
  C   C95       1.0  0.04589500079813114  0.12036895323743455  0.4637874080804233  1.0000
  C   C96       1.0  0.45410499886022354  0.8796310466220896  0.9637874079914012  1.0000
  N   N1        1.0  0.2076537162935869  0.23515780625172333  0.6903262092968813  1.0000
  N   N2        1.0  0.29234628336476776  0.7648421936078007  0.1903262093859034  1.0000
  N   N3        1.0  0.7076537159519415  0.2648421940400045  0.30967379052507454  1.0000
  N   N4        1.0  0.7923462841088148  0.7351578058195196  0.8096737904360525  1.0000
  N   N5        1.0  0.3869951684170277  0.36871608926367916  0.8895548001368656  1.0000
  N   N6        1.0  0.11300483124132697  0.6312839113197765  0.3895548002258876  1.0000
  N   N7        1.0  0.8869951680753823  0.13128391102804865  0.11044519968509034  1.0000
  N   N8        1.0  0.6130048308996816  0.8687160888314754  0.6104452001370408  1.0000
  O   O1        1.0  0.4348203534891641  0.2979268410432104  0.6713712054889416  1.0000
  O   O2        1.0  0.06517964616919049  0.7020731588163137  0.17137120557796373  1.0000
  O   O3        1.0  0.9348203531475188  0.20207315924851743  0.32862879433301423  1.0000
  O   O4        1.0  0.5651796469132375  0.7979268406110067  0.8286287947849648  1.0000
  O   O5        1.0  0.28654466625061675  0.39920997798275626  0.5536215617593201  1.0000
  O   O6        1.0  0.2134553334077379  0.6007900226006994  0.053621561848342145  1.0000
  O   O7        1.0  0.7865446659089714  0.10079002230897155  0.4463784380626358  1.0000
  O   O8        1.0  0.713455334151785  0.8992099775505527  0.9463784385145863  1.0000
  O   O9        1.0  0.04361774126419011  0.3483013728994025  0.5482004771549458  1.0000
  O   O10       1.0  0.4563822583941645  0.6516986269601217  0.048200477243967914  1.0000
  O   O11       1.0  0.5436177420082372  0.15169862739232534  0.45179952266700996  1.0000
  O   O12       1.0  0.9563822580525191  0.8483013731911303  0.9517995231189605  1.0000
  O   O13       1.0  0.5590479912256568  0.4251175492411405  0.4674223563055032  1.0000
  O   O14       1.0  0.9409520088350996  0.5748824506183836  0.9674223562164811  1.0000
  O   O15       1.0  0.059047990481609754  0.07488245032665579  0.5325776440574252  1.0000
  O   O16       1.0  0.44095200917674493  0.9251175495328683  0.03257764360547468  1.0000
  O   O17       1.0  0.43523207956531557  0.9736285803494449  0.46143497559685054  1.0000
  O   O18       1.0  0.0647679200930391  0.02637142023401071  0.9614349755078285  1.0000
  O   O19       1.0  0.9352320792236701  0.526371419801807  0.5385650242251052  1.0000
  O   O20       1.0  0.5647679208370862  0.47362858005771713  0.038565024314127325  1.0000
  O   O21       1.0  0.32390756155780404  0.5940273085978778  0.5342971883283557  1.0000
  O   O22       1.0  0.1760924381005506  0.40597269126164637  0.034297188417377826  1.0000
  O   O23       1.0  0.8239075612161586  0.9059726915533741  0.4657028114936001  1.0000
  O   O24       1.0  0.6760924388445977  0.09402730830614993  0.9657028119455506  1.0000
  O   O25       1.0  0.5957764936131495  0.8299454340458651  0.40081251323588823  1.0000
  O   O26       1.0  0.9042235064476067  0.17005456581365913  0.9008125131468662  1.0000
  O   O27       1.0  0.09577649395479493  0.6700545661053869  0.5991874871270403  1.0000
  O   O28       1.0  0.40422350678925223  0.32994543375413715  0.09918748667508966  1.0000
  Cl  Cl1       1.0  0.6457445164610269  0.6325590667113679  0.48859163143205264  1.0000
  Cl  Cl2       1.0  0.8542554835997294  0.3674409331481563  0.9885916313430306  1.0000
  Cl  Cl3       1.0  0.14574451680267236  0.8674409327159526  0.5114083683899032  1.0000
  Cl  Cl4       1.0  0.35425548285568226  0.13255906714357152  0.011408368478925332  1.0000
