data_image0
_chemical_formula_structural       H22C28O8S2Br10
_chemical_formula_sum              "H22 C28 O8 S2 Br10"
_cell_length_a       4.758971554800145
_cell_length_b       12.94056096836914
_cell_length_c       16.29371577485245
_cell_angle_alpha    110.73779064243539
_cell_angle_beta     93.89047484683606
_cell_angle_gamma    99.22785908454455

_space_group_name_H-M_alt    "P 1"
_space_group_IT_number       1

loop_
  _space_group_symop_operation_xyz
  'x, y, z'

loop_
  _atom_site_type_symbol
  _atom_site_label
  _atom_site_symmetry_multiplicity
  _atom_site_fract_x
  _atom_site_fract_y
  _atom_site_fract_z
  _atom_site_occupancy
  H   H1        1.0  0.8088139981834647  0.21179736556270046  0.3753851920534419  1.0000
  H   H2        1.0  0.19118600249687234  0.7882026340914758  0.6246148076567217  1.0000
  H   H3        1.0  0.25497621522393726  0.3749174076429833  0.342450744153289  1.0000
  H   H4        1.0  0.7450237857438952  0.6250825923249107  0.657549256219189  1.0000
  H   H5        1.0  0.16391483874131088  0.14800602190639126  0.13067605621600267  1.0000
  H   H6        1.0  0.836085161939026  0.8519939777477852  0.869323943494161  1.0000
  H   H7        1.0  0.5615674739545179  0.5129161356774073  0.08009814953379285  1.0000
  H   H8        1.0  0.4384325249628485  0.48708386475798  0.9199018501742572  1.0000
  H   H9        1.0  0.7886999471140492  0.21967992381808665  0.11622278166462048  1.0000
  H   H10       1.0  0.2113000514642616  0.780320075834934  0.8837772180445485  1.0000
  H   H11       1.0  0.1577549547075019  0.51504405808901  0.5720518585254805  1.0000
  H   H12       1.0  0.8422450459728352  0.48495594156516647  0.4279481411846832  1.0000
  H   H13       1.0  0.1799936974879109  0.43654068762362286  0.6420979166659317  1.0000
  H   H14       1.0  0.8200063034799214  0.563459312344271  0.3579020837065462  1.0000
  H   H15       1.0  0.876760746444543  0.3963528826814242  0.5574563289069991  1.0000
  H   H16       1.0  0.12323925457484977  0.603647117755119  0.4425436708020456  1.0000
  H   H17       1.0  0.29674646565618323  0.15186584416243715  0.48412601975220926  1.0000
  H   H18       1.0  0.7032535353116491  0.8481341558054568  0.5158739806202688  1.0000
  H   H19       1.0  0.9695733166392602  0.19423268086170833  0.520170233976325  1.0000
  H   H20       1.0  0.030426684041076946  0.8057673187924682  0.4798297657338388  1.0000
  H   H21       1.0  0.29823851379627536  0.24277166858660437  0.5971601827750941  1.0000
  H   H22       1.0  0.7017614868840616  0.7572283310675721  0.40283981693506954  1.0000
  C   C1        1.0  0.4575534946456969  0.10091069292841251  0.30820351551512093  1.0000
  C   C2        1.0  0.5424465042201093  0.8990893070383257  0.6917964848563624  1.0000
  C   C3        1.0  0.4082331776668942  0.15443561713683576  0.24846151269048472  1.0000
  C   C4        1.0  0.5917668233524985  0.8455643832997074  0.7515384870185601  1.0000
  C   C5        1.0  0.1922197085609755  0.10609873435102732  0.17700777299736195  1.0000
  C   C6        1.0  0.8077802900173352  0.8939012653019933  0.822992226711807  1.0000
  C   C7        1.0  0.014934657001961739  0.003100136772132714  0.1641880793278844  1.0000
  C   C8        1.0  0.9850653436783753  0.9968998628820438  0.8358119203822794  1.0000
  C   C9        1.0  0.05377685611981072  0.9478273970680111  0.22278760350823182  1.0000
  C   C10       1.0  0.9462231448480217  0.05217260289988285  0.7772123968642463  1.0000
  C   C11       1.0  0.27553435305567225  0.9980104344865657  0.2946946370978444  1.0000
  C   C12       1.0  0.7244656458101338  0.0019895654801725077  0.7053053632736389  1.0000
  C   C13       1.0  0.558953285360071  0.31813160509857064  0.2139643499363636  1.0000
  C   C14       1.0  0.44104671350573504  0.6818683948681674  0.7860356504351196  1.0000
  C   C15       1.0  0.41646264781533215  0.4094303263469742  0.24304031643993956  1.0000
  C   C16       1.0  0.5835373534915558  0.5905696744032866  0.7569596839314194  1.0000
  C   C17       1.0  0.42723053330727545  0.4792231319559954  0.19333096794748614  1.0000
  C   C18       1.0  0.5727694673730616  0.5207768676981811  0.8066690317626776  1.0000
  C   C19       1.0  0.5577101421126442  0.45681746609515994  0.11660286623222024  1.0000
  C   C20       1.0  0.44228985709221735  0.5431825346539448  0.8833971341381439  1.0000
  C   C21       1.0  0.6836005637953183  0.36212694129704265  0.08812690482039641  1.0000
  C   C22       1.0  0.31639943478299243  0.637873058355978  0.9118730948887724  1.0000
  C   C23       1.0  0.6872794156954968  0.2927660127096995  0.1367960902233562  1.0000
  C   C24       1.0  0.31272058322186963  0.7072339877256878  0.8632039094846937  1.0000
  C   C25       1.0  0.1078626291643253  0.431082717250789  0.5751789458161436  1.0000
  C   C26       1.0  0.8921373697014808  0.5689172827159492  0.42482105455533975  1.0000
  C   C27       1.0  0.20387550986161662  0.21948891698325876  0.528143317534309  1.0000
  C   C28       1.0  0.7961244914452714  0.780511083767002  0.4718566828370501  1.0000
  O   O1        1.0  0.6654546270984782  0.14792817036146474  0.3787320346939578  1.0000
  O   O2        1.0  0.3345453714798325  0.8520718292915558  0.621267965015211  1.0000
  O   O3        1.0  0.5867534821209209  0.25791657046438565  0.26893905359645415  1.0000
  O   O4        1.0  0.4132465167448851  0.7420834295023525  0.731060946775029  1.0000
  O   O5        1.0  0.28429364671533086  0.43491975100018215  0.31608314893664485  1.0000
  O   O6        1.0  0.7157063524895309  0.5650802497489228  0.6839168514337194  1.0000
  O   O7        1.0  0.1259180133714845  0.3090670776666785  0.4063983419039003  1.0000
  O   O8        1.0  0.8740819873088524  0.690932921987498  0.5936016578062635  1.0000
  S   S1        1.0  0.2958550182686607  0.33999283017222953  0.4983307996059361  1.0000
  S   S2        1.0  0.70414498030965  0.6600071694807912  0.5016692001032329  1.0000
  Br  Br1       1.0  0.7192063147733984  0.942978078481525  0.06632976060935189  1.0000
  Br  Br2       1.0  0.2807936859069387  0.05702192117265143  0.9336702391008118  1.0000
  Br  Br3       1.0  0.811438927046853  0.8094825870337883  0.20663790241961763  1.0000
  Br  Br4       1.0  0.1885610715314577  0.19051741261923236  0.7933620972895513  1.0000
  Br  Br5       1.0  0.33901431383541863  0.9326931877491086  0.37985663380579154  1.0000
  Br  Br6       1.0  0.6609856868449184  0.06730681190506793  0.6201433659043722  1.0000
  Br  Br7       1.0  0.2657403321201178  0.6108604964149797  0.23489155730236438  1.0000
  Br  Br8       1.0  0.7342596667972486  0.38913950402040764  0.7651084424056857  1.0000
  Br  Br9       1.0  0.8581587603683819  0.32851052400913106  0.9826911197995146  1.0000
  Br  Br10      1.0  0.14184124031195508  0.6714894756450454  0.017308879910649014  1.0000
