data_image0
_chemical_formula_structural       H36C56O10Cl20
_chemical_formula_sum              "H36 C56 O10 Cl20"
_cell_length_a       12.52825017596953
_cell_length_b       10.199227206180856
_cell_length_c       13.537666631549698
_cell_angle_alpha    90.0
_cell_angle_beta     114.33115601925265
_cell_angle_gamma    90.0

_space_group_name_H-M_alt    "P 1"
_space_group_IT_number       1

loop_
  _space_group_symop_operation_xyz
  'x, y, z'

loop_
  _atom_site_type_symbol
  _atom_site_label
  _atom_site_symmetry_multiplicity
  _atom_site_fract_x
  _atom_site_fract_y
  _atom_site_fract_z
  _atom_site_occupancy
  H   H1        1.0  0.9381402387053048  0.8334895221128441  0.5889327482227186  1.0000
  H   H2        1.0  0.061859761195874906  0.33348952143538374  0.41106725173711967  1.0000
  H   H3        1.0  0.724422651086609  0.9211655157859812  0.6151638169689322  1.0000
  H   H4        1.0  0.27557734918437343  0.42116551510852085  0.38483618380154094  1.0000
  H   H5        1.0  0.7335364177854966  0.8293502888997223  0.5064681315107075  1.0000
  H   H6        1.0  0.266463582115683  0.32935028920272835  0.49353186844913083  1.0000
  H   H7        1.0  0.08501758617465502  0.0672772844578037  0.920434506903298  1.0000
  H   H8        1.0  0.9149824137265247  0.5672772841547976  0.07956549305654029  1.0000
  H   H9        1.0  0.2032189019995558  0.05301522057203712  0.8804626145593921  1.0000
  H   H10       1.0  0.7967810986957444  0.5530152212494974  0.11953738539140343  1.0000
  H   H11       1.0  0.2244362322835881  0.013261667503399821  0.015838289520202133  1.0000
  H   H12       1.0  0.7755637676175916  0.5132616672003937  0.9841617104396361  1.0000
  H   H13       1.0  0.1350510300658974  0.7986957154031609  0.046569353931687325  1.0000
  H   H14       1.0  0.8649489706294029  0.2986957157061669  0.9534306460191083  1.0000
  H   H15       1.0  0.9948567403698885  0.8508129620586594  0.9571649522089821  1.0000
  H   H16       1.0  0.00514325953129119  0.35081296236166554  0.04283504775085607  1.0000
  H   H17       1.0  0.031219314108847526  0.6020106029483351  0.9907282994434264  1.0000
  H   H18       1.0  0.9687806857923321  0.1020106022708747  0.009271700516411921  1.0000
  H   H19       1.0  0.425700863374838  0.7919623464319918  0.898690117953857  1.0000
  H   H20       1.0  0.5742991365263417  0.291962346734998  0.10130988200598122  1.0000
  H   H21       1.0  0.5988480598881671  0.67986821842716  0.8931001798802735  1.0000
  H   H22       1.0  0.4011519400130126  0.17986821774969974  0.10689982007956485  1.0000
  H   H23       1.0  0.6017654921311051  0.4346220003132849  0.8826682078698058  1.0000
  H   H24       1.0  0.3982345085641952  0.9346220000102788  0.11733179208098984  1.0000
  H   H25       1.0  0.43680391348691405  0.3044148686204829  0.8903387558454735  1.0000
  H   H26       1.0  0.5631960864142657  0.8044148692979431  0.10966124411436484  1.0000
  H   H27       1.0  9.944238050604185e-05  0.5594153022243032  0.7181551564559452  1.0000
  H   H28       1.0  0.9999005575206735  0.05941530252730938  0.28184484350389294  1.0000
  H   H29       1.0  0.8105065983494076  0.5340328389487411  0.5611233274706386  1.0000
  H   H30       1.0  0.189493401551772  0.03403283925174722  0.43887667248919954  1.0000
  H   H31       1.0  0.6249126207541305  0.5996273145374965  0.5748894852681885  1.0000
  H   H32       1.0  0.37508737914704915  0.09962731386003616  0.4251105146916497  1.0000
  H   H33       1.0  0.6337253497358339  0.6935793219424591  0.7475555518485355  1.0000
  H   H34       1.0  0.3662746501653458  0.19357932224546523  0.2524444481113028  1.0000
  H   H35       1.0  0.8252624207280777  0.7188555977610595  0.9060627262666369  1.0000
  H   H36       1.0  0.17473757917310206  0.21885559806406557  0.09393727369320137  1.0000
  C   C1        1.0  0.9003064459148563  0.9161517584721907  0.6150924529300731  1.0000
  C   C2        1.0  0.09969355398632326  0.41615175877519683  0.38490754702976504  1.0000
  C   C3        1.0  0.9343556520376309  0.047315047527086415  0.5730983739061906  1.0000
  C   C4        1.0  0.06564434786354888  0.5473150472240803  0.4269016260536477  1.0000
  C   C5        1.0  0.8880704178768124  0.16030086465856977  0.6181897493408637  1.0000
  C   C6        1.0  0.1119295820243672  0.6603008643555637  0.38181025061897456  1.0000
  C   C7        1.0  0.770246690652142  0.15768346537327663  0.5662638065798713  1.0000
  C   C8        1.0  0.22975330924903756  0.657683466050737  0.4337361933799669  1.0000
  C   C9        1.0  0.7372936717478838  0.04292258434391006  0.48742583485847296  1.0000
  C   C10       1.0  0.2627063281532959  0.542922584040904  0.5125741651013653  1.0000
  C   C11       1.0  0.7650759935791938  0.916491051825505  0.5574500384033128  1.0000
  C   C12       1.0  0.23492400711610645  0.4164910521285112  0.44254996154748294  1.0000
  C   C13       1.0  0.8415574257700075  0.04804534403381451  0.45246380319436563  1.0000
  C   C14       1.0  0.15844257413117208  0.5480453447112749  0.5475361967654726  1.0000
  C   C15       1.0  0.9478949088347136  0.9181045162250457  0.7376765395595535  1.0000
  C   C16       1.0  0.052105091066465895  0.4181045155475854  0.26232346040028465  1.0000
  C   C17       1.0  0.1283328459255584  0.8693468152789745  0.8970776927209897  1.0000
  C   C18       1.0  0.8716671547697419  0.3693468155819806  0.10292230722980604  1.0000
  C   C19       1.0  0.16254452842073766  0.00970842084388449  0.9306651649265303  1.0000
  C   C20       1.0  0.8374554714804419  0.5097084205408784  0.06933483503330783  1.0000
  C   C21       1.0  0.07187504792243306  0.7970989159917181  0.9610335527948582  1.0000
  C   C22       1.0  0.9281249519787466  0.29709891629472424  0.03896644716497996  1.0000
  C   C23       1.0  0.04202246081714392  0.6539177758446472  0.9239389335448367  1.0000
  C   C24       1.0  0.9579775390840357  0.15391777614765326  0.07606106641500145  1.0000
  C   C25       1.0  0.146821921414058  0.5941115240895782  0.9134616210960644  1.0000
  C   C26       1.0  0.8531780792812422  0.09411152439258438  0.08653837885473119  1.0000
  C   C27       1.0  0.23405612906420767  0.670324731647984  0.9068750947041989  1.0000
  C   C28       1.0  0.7659438708369719  0.17032473097052364  0.09312490525563932  1.0000
  C   C29       1.0  0.33709214907549817  0.6125267065542045  0.9027827507646727  1.0000
  C   C30       1.0  0.6629078508256814  0.11252670587674414  0.09721724919516546  1.0000
  C   C31       1.0  0.43028933771897293  0.6855051915857892  0.8985286238997225  1.0000
  C   C32       1.0  0.5697106621822067  0.18550519188879516  0.10147137606011553  1.0000
  C   C33       1.0  0.5261181994654217  0.6222132747620516  0.8940196346307846  1.0000
  C   C34       1.0  0.4738818004357579  0.12221327408459118  0.1059803653290537  1.0000
  C   C35       1.0  0.5284798749130355  0.4848346771805717  0.8897236105611965  1.0000
  C   C36       1.0  0.47152012498814416  0.9848346768775657  0.11027638939864173  1.0000
  C   C37       1.0  0.4371126250905542  0.41088577646945385  0.8934390810806735  1.0000
  C   C38       1.0  0.5628873748106255  0.9108857771469142  0.10656091887916472  1.0000
  C   C39       1.0  0.34300772256506257  0.4750150214384871  0.9018700786683733  1.0000
  C   C40       1.0  0.656992277336117  0.9750150221159474  0.09812992129146489  1.0000
  C   C41       1.0  0.15961618356765406  0.4533494848705706  0.918806030964924  1.0000
  C   C42       1.0  0.8403838163335257  0.9533494855480309  0.08119396899491427  1.0000
  C   C43       1.0  0.9261999599777174  0.6378842963766244  0.8242580943516974  1.0000
  C   C44       1.0  0.07380004071758298  0.1378842966796305  0.17574190559909827  1.0000
  C   C45       1.0  0.9200827317715009  0.5875973913364873  0.7259105882021211  1.0000
  C   C46       1.0  0.07991726812967884  0.08759739065902691  0.2740894117577172  1.0000
  C   C47       1.0  0.8126200614559288  0.5740606275004654  0.6366257240319169  1.0000
  C   C48       1.0  0.18737993844525086  0.07406062780347142  0.36337427592792143  1.0000
  C   C49       1.0  0.7090490233729206  0.6108733665845075  0.6442252722169649  1.0000
  C   C50       1.0  0.29095097652825885  0.11087336688751356  0.35577472774287333  1.0000
  C   C51       1.0  0.7142111043031731  0.6625725668612161  0.7417083602230206  1.0000
  C   C52       1.0  0.28578889559800646  0.16257256716422225  0.2582916397368176  1.0000
  C   C53       1.0  0.8216269802887853  0.6759142718011293  0.8309137418235838  1.0000
  C   C54       1.0  0.1783730196123943  0.1759142721041354  0.16908625813625436  1.0000
  C   C55       1.0  0.480346225333799  0.05181268142352523  0.7376218465312251  1.0000
  C   C56       1.0  0.5196537745673807  0.5518126811205191  0.2623781534286131  1.0000
  O   O1        1.0  0.8974552841206023  0.9653728494285498  0.7893897826832402  1.0000
  O   O2        1.0  0.10254471578057735  0.4653728487510895  0.21061021727659793  1.0000
  O   O3        1.0  0.05638534592023139  0.8645927943105411  0.7796598078234135  1.0000
  O   O4        1.0  0.9436146543507512  0.3645927936330808  0.22034019294705967  1.0000
  O   O5        1.0  0.2331231159320086  0.8033704784059015  0.9053226718597452  1.0000
  O   O6        1.0  0.7668768843389738  0.30337047870890754  0.0946773289107279  1.0000
  O   O7        1.0  0.2570497175373614  0.39843863048146516  0.9091205788614994  1.0000
  O   O8        1.0  0.742950282363818  0.8984386311589255  0.09087942109833866  1.0000
  O   O9        1.0  0.09163822282160486  0.37529014430430435  0.9313613609747345  1.0000
  O   O10       1.0  0.9083617770795749  0.8752901440012982  0.06863863898510356  1.0000
  Cl  Cl1       1.0  0.08152477539559207  0.05805233749878489  0.5926851554199791  1.0000
  Cl  Cl2       1.0  0.9184752245055875  0.5580523371957788  0.40731484453985917  1.0000
  Cl  Cl3       1.0  0.9712205051056129  0.250270234048038  0.7270704539129225  1.0000
  Cl  Cl4       1.0  0.028779494795566782  0.750270233745032  0.2729295460469157  1.0000
  Cl  Cl5       1.0  0.6720481162220449  0.24680839627481904  0.5934934645404893  1.0000
  Cl  Cl6       1.0  0.3279518844732554  0.7468083959718129  0.4065065354103063  1.0000
  Cl  Cl7       1.0  0.5964473868028076  0.04689904738175886  0.38215225616912085  1.0000
  Cl  Cl8       1.0  0.40355261309837204  0.5468990470787527  0.6178477437907174  1.0000
  Cl  Cl9       1.0  0.8501099966212652  0.9098679980750146  0.3773871062318668  1.0000
  Cl  Cl10      1.0  0.14989000327991442  0.40986799837802074  0.6226128937279714  1.0000
  Cl  Cl11      1.0  0.8454983399697485  0.19174180067435614  0.3807601609223977  1.0000
  Cl  Cl12      1.0  0.1545016599314312  0.69174180037135  0.6192398390374406  1.0000
  Cl  Cl13      1.0  0.4472677780643797  0.21010545178377518  0.6774804729581749  1.0000
  Cl  Cl14      1.0  0.5527322218368  0.7101054514807691  0.3225195270016632  1.0000
  Cl  Cl15      1.0  0.42106763225273414  0.929397458099132  0.6366082837883206  1.0000
  Cl  Cl16      1.0  0.5789323684425661  0.42939745840213817  0.3633917161624752  1.0000
  Cl  Cl17      1.0  0.4173854487077525  0.038032918784760866  0.8333490463313727  1.0000
  Cl  Cl18      1.0  0.5826145519875476  0.5380329194622212  0.16665095361942295  1.0000
  Cl  Cl19      1.0  0.6344358459226022  0.03143472083901676  0.803712444764358  1.0000
  Cl  Cl20      1.0  0.36556415397857733  0.5314347205360106  0.1962875551954801  1.0000
