data_image0
_chemical_formula_structural       H14C10N4I4
_chemical_formula_sum              "H14 C10 N4 I4"
_cell_length_a       5.331026851993416
_cell_length_b       7.112847490569425
_cell_length_c       12.079672971106701
_cell_angle_alpha    96.1356162614966
_cell_angle_beta     93.21053778659227
_cell_angle_gamma    104.62253264091977

_space_group_name_H-M_alt    "P 1"
_space_group_IT_number       1

loop_
  _space_group_symop_operation_xyz
  'x, y, z'

loop_
  _atom_site_type_symbol
  _atom_site_label
  _atom_site_symmetry_multiplicity
  _atom_site_fract_x
  _atom_site_fract_y
  _atom_site_fract_z
  _atom_site_occupancy
  H   H1        1.0  0.2425556480233891  0.5982229668066097  0.1223344649461514  1.0000
  H   H2        1.0  0.757444351895143  0.40177703374288876  0.8776655350249933  1.0000
  H   H3        1.0  0.5605182541068788  0.6378118925876496  0.29090746430173337  1.0000
  H   H4        1.0  0.43948174581165333  0.36218810796184886  0.7090925356694116  1.0000
  H   H5        1.0  0.29694291034623865  0.09933937747955293  0.4382649809516959  1.0000
  H   H6        1.0  0.7030570895722935  0.9006606230699458  0.5617350190194489  1.0000
  H   H7        1.0  0.9772992544397189  0.06338120612586785  0.2677822394525618  1.0000
  H   H8        1.0  0.02270074547881331  0.9366187944236307  0.732217760518583  1.0000
  H   H9        1.0  0.8160945193179077  0.9220582085473203  0.09706062796409952  1.0000
  H   H10       1.0  0.1839054806006245  0.0779417920021782  0.9029393720070452  1.0000
  H   H11       1.0  0.02898956302539677  0.8120266020495625  0.01541530659558769  1.0000
  H   H12       1.0  0.9710104368931354  0.18797339849993613  0.9845846933755571  1.0000
  H   H13       1.0  0.7794457175252214  0.6605262767576261  0.08416558834903463  1.0000
  H   H14       1.0  0.2205542820880006  0.33947372253218944  0.9158344124628089  1.0000
  C   C1        1.0  0.28611953765859577  0.9880480809365104  0.3674156209140181  1.0000
  C   C2        1.0  0.7138804622599363  0.011951919612987966  0.6325843790571267  1.0000
  C   C3        1.0  0.9175201107071447  0.8059503750293503  0.08952823197204024  1.0000
  C   C4        1.0  0.0824798887296774  0.1940496240683118  0.9104717680041006  1.0000
  C   C5        1.0  0.10903956928178422  0.9695174304207749  0.27516208859258245  1.0000
  C   C6        1.0  0.8909604301550379  0.030482568676887065  0.7248379113835585  1.0000
  C   C7        1.0  0.2584334997744039  0.7100920127800101  0.19313945948781513  1.0000
  C   C8        1.0  0.741566501539435  0.289907986322242  0.8068605404858024  1.0000
  C   C9        1.0  0.43321830639436104  0.7358016158087446  0.2866345152200481  1.0000
  C   C10       1.0  0.5667816949194777  0.2641983832935075  0.7133654847535693  1.0000
  N   N1        1.0  0.09909712376898915  0.829768735185941  0.18883185004471764  1.0000
  N   N2        1.0  0.900902875667833  0.17023126391172103  0.8111681499314232  1.0000
  N   N3        1.0  0.45077913699785543  0.8741129592403316  0.3732331098309138  1.0000
  N   N4        1.0  0.5492208647976934  0.12588704131375683  0.6267668901377075  1.0000
  I   I1        1.0  0.610964280336387  0.26970284867867095  0.13501400133484454  1.0000
  I   I2        1.0  0.38903571910043516  0.730297150418991  0.8649859986412962  1.0000
  I   I3        1.0  0.12502205224622193  0.5772766095734588  0.6088738723534508  1.0000
  I   I4        1.0  0.8749779471906001  0.4227233895242031  0.39112612762269  1.0000
