data_image0
_chemical_formula_structural       H148C60N12O32S8
_chemical_formula_sum              "H148 C60 N12 O32 S8"
_cell_length_a       10.565704970833991
_cell_length_b       17.778730867203826
_cell_length_c       11.074774025948617
_cell_angle_alpha    90.0
_cell_angle_beta     99.21247872763536
_cell_angle_gamma    90.0

_space_group_name_H-M_alt    "P 1"
_space_group_IT_number       1

loop_
  _space_group_symop_operation_xyz
  'x, y, z'

loop_
  _atom_site_type_symbol
  _atom_site_label
  _atom_site_symmetry_multiplicity
  _atom_site_fract_x
  _atom_site_fract_y
  _atom_site_fract_z
  _atom_site_occupancy
  H   H1        1.0  0.5057933306156003  0.6214608366889415  0.4343105218431017  1.0000
  H   H2        1.0  0.494206670231489  0.12146083689153823  0.06568947800880025  1.0000
  H   H3        1.0  0.49420666947312164  0.3785391634683348  0.5656894782124822  1.0000
  H   H4        1.0  0.5057933298572329  0.8785391632657381  0.9343105220467837  1.0000
  H   H5        1.0  0.202163113759896  0.46898868835351093  0.8108210706400034  1.0000
  H   H6        1.0  0.7978368855704585  0.9689886881509141  0.6891789296192622  1.0000
  H   H7        1.0  0.7978368863288258  0.5310113118037655  0.18917892941558034  1.0000
  H   H8        1.0  0.20216311355943747  0.03101131200636218  0.31082107028994305  1.0000
  H   H9        1.0  0.19533335605390578  0.46104375116676477  0.6505783520722913  1.0000
  H   H10       1.0  0.8046666442352005  0.9610437509641679  0.8494216474303888  1.0000
  H   H11       1.0  0.8046666440347421  0.5389562489905116  0.3494216470803284  1.0000
  H   H12       1.0  0.19533335585352132  0.038956248630638526  0.15057835262519506  1.0000
  H   H13       1.0  0.3015146417643339  0.5658351991005853  0.5460084952858768  1.0000
  H   H14       1.0  0.6984853585248466  0.06583519930318213  0.9539915051197676  1.0000
  H   H15       1.0  0.6984853583243881  0.4341648004942211  0.4539915047697071  1.0000
  H   H16       1.0  0.30151464156387536  0.9341648008540943  0.046008494935816255  1.0000
  H   H17       1.0  0.38126733123739304  0.6341910659550531  0.6289073445379998  1.0000
  H   H18       1.0  0.6187326690517874  0.13419106615764984  0.8710926558676446  1.0000
  H   H19       1.0  0.6187326688513288  0.36580893420222327  0.3710926555175842  1.0000
  H   H20       1.0  0.3812673310369345  0.8658089339996266  0.1289073441879392  1.0000
  H   H21       1.0  0.3166936847658987  0.5913655653224678  0.8117313269435776  1.0000
  H   H22       1.0  0.6833063145644558  0.09136556496259478  0.6882686733156881  1.0000
  H   H23       1.0  0.6833063153228233  0.4086344348348085  0.1882686731120062  1.0000
  H   H24       1.0  0.3166936845654402  0.9086344346322117  0.3117313265935172  1.0000
  H   H25       1.0  0.39979525658640663  0.5210984720562949  0.7387787730994474  1.0000
  H   H26       1.0  0.6002047437027738  0.021098472258891617  0.7612212273061971  1.0000
  H   H27       1.0  0.6002047435023153  0.4789015275385116  0.2612212269561366  1.0000
  H   H28       1.0  0.3997952563859482  0.9789015278983847  0.23877877274938683  1.0000
  H   H29       1.0  0.05976792762313855  0.562795899478829  0.5085771796309944  1.0000
  H   H30       1.0  0.9402320726659678  0.0627958996814258  0.9914228198716859  1.0000
  H   H31       1.0  0.9402320724655834  0.4372041006784473  0.4914228204245896  1.0000
  H   H32       1.0  0.059767927422754094  0.9372041004758506  0.008577180183898109  1.0000
  H   H33       1.0  0.9771759728878802  0.631804386595489  0.580233814929492  1.0000
  H   H34       1.0  0.022824027401300257  0.13180438679808576  0.9197661854761524  1.0000
  H   H35       1.0  0.022824027200841743  0.36819561299931747  0.41976618512609204  1.0000
  H   H36       1.0  0.9771759726874216  0.8681956133591906  0.08023381457943146  1.0000
  H   H37       1.0  0.18578542458818048  0.6823839688343324  0.5220132785611317  1.0000
  H   H38       1.0  0.8142145757009258  0.1823839690369292  0.9779867209415487  1.0000
  H   H39       1.0  0.8142145755005414  0.31761603076047407  0.4779867214944523  1.0000
  H   H40       1.0  0.18578542438779602  0.8176160311203472  0.022013279114035406  1.0000
  H   H41       1.0  0.18868442700873825  0.6846881574913287  0.6839157022846655  1.0000
  H   H42       1.0  0.8113155732803681  0.18468815769392544  0.8160842972180146  1.0000
  H   H43       1.0  0.8113155730799837  0.31531184266594764  0.31608429777091834  1.0000
  H   H44       1.0  0.1886844268083538  0.8153118424633509  0.18391570283756936  1.0000
  H   H45       1.0  0.06259228375615988  0.5815525499107869  0.7844357251291642  1.0000
  H   H46       1.0  0.9374077165329465  0.08155255011338361  0.715564274373516  1.0000
  H   H47       1.0  0.9374077163325619  0.41844744968401965  0.2155642749264198  1.0000
  H   H48       1.0  0.06259228355577542  0.9184474500438927  0.28443572568206793  1.0000
  H   H49       1.0  0.985022398871234  0.5092283998010647  0.6911299856257251  1.0000
  H   H50       1.0  0.014977600459046374  0.009228400003661466  0.8088700137305764  1.0000
  H   H51       1.0  0.014977601217487776  0.4907715997937418  0.3088700144298588  1.0000
  H   H52       1.0  0.9850223986707756  0.9907716001536149  0.19112998527566466  1.0000
  H   H53       1.0  0.36217153122331797  0.6848057907473591  0.19554650379036445  1.0000
  H   H54       1.0  0.6378284686649455  0.184805790949956  0.30445349591515897  1.0000
  H   H55       1.0  0.6378284688654039  0.31519420884744725  0.8044534962652196  1.0000
  H   H56       1.0  0.3621715314237765  0.8151942092073204  0.695546504140425  1.0000
  H   H57       1.0  0.3108402207424682  0.660707915977776  0.04981099567306812  1.0000
  H   H58       1.0  0.6891597791457952  0.16070791618037283  0.4501890040324553  1.0000
  H   H59       1.0  0.6891597783874279  0.33929208417950024  0.9501890042361372  1.0000
  H   H60       1.0  0.3108402209429267  0.8392920839769036  0.5498109960231286  1.0000
  H   H61       1.0  0.21277004878935643  0.4677225839184906  0.18520253976530907  1.0000
  H   H62       1.0  0.7872299510989811  0.9677225837158938  0.3147974608431786  1.0000
  H   H63       1.0  0.7872299512993655  0.5322774162387858  0.814797460290275  1.0000
  H   H64       1.0  0.21277004898974095  0.032277415878912696  0.6852025392124053  1.0000
  H   H65       1.0  0.16654128682734265  0.4490202258883476  0.027611194122858222  1.0000
  H   H66       1.0  0.8334587140198207  0.9490202256857507  0.47238880663200805  1.0000
  H   H67       1.0  0.8334587132613793  0.5509797742689287  0.9723888059327258  1.0000
  H   H68       1.0  0.16654128606890123  0.0509797744715255  0.5276111934235759  1.0000
  H   H69       1.0  0.41421464767218813  0.5555574598533441  0.25309646125755003  1.0000
  H   H70       1.0  0.5857853522160752  0.055557460055940894  0.24690353844797341  1.0000
  H   H71       1.0  0.5857853514577078  0.4444425403039322  0.7469035386516554  1.0000
  H   H72       1.0  0.4142146478725726  0.9444425401013354  0.7530964607046463  1.0000
  H   H73       1.0  0.49834372336377053  0.5900189523286145  0.13659720340642323  1.0000
  H   H74       1.0  0.5016562765244929  0.09001895253121117  0.3634027962991002  1.0000
  H   H75       1.0  0.5016562767248772  0.40998104726619206  0.8634027957461964  1.0000
  H   H76       1.0  0.49834372356422907  0.9099810476260651  0.6365972037564837  1.0000
  H   H77       1.0  0.13534071169666856  0.6770829999010634  0.15524259625913375  1.0000
  H   H78       1.0  0.8646592881916689  0.1770830001036601  0.3447574043493539  1.0000
  H   H79       1.0  0.8646592874332274  0.322917000256213  0.8447574036500716  1.0000
  H   H80       1.0  0.13534071189705302  0.8229170000536163  0.65524259570623  1.0000
  H   H81       1.0  0.19931877287909514  0.6073330324111155  0.2638392967489108  1.0000
  H   H82       1.0  0.8006812270091682  0.1073330326137122  0.2361607029566126  1.0000
  H   H83       1.0  0.8006812272096268  0.3926669677461609  0.736160703306673  1.0000
  H   H84       1.0  0.19931877307955367  0.8926669675435641  0.7638392970989712  1.0000
  H   H85       1.0  0.4079858981020458  0.458881987749169  0.09275575681711053  1.0000
  H   H86       1.0  0.5920141017862176  0.9588819875465724  0.4072442428884129  1.0000
  H   H87       1.0  0.5920141019866761  0.5411180124081072  0.9072442432384734  1.0000
  H   H88       1.0  0.4079858983025043  0.04111801261070404  0.592755757167171  1.0000
  H   H89       1.0  0.34873397050754323  0.524762780858009  0.9777709487557433  1.0000
  H   H90       1.0  0.6512660297815632  0.02476278106060565  0.522229050746937  1.0000
  H   H91       1.0  0.6512660295811786  0.47523721929926743  0.022229051299840753  1.0000
  H   H92       1.0  0.34873397030715875  0.9752372190966707  0.47777094930864694  1.0000
  H   H93       1.0  0.11364981111903202  0.5840534972692972  0.9872465395994848  1.0000
  H   H94       1.0  0.8863501882113226  0.08405349747189396  0.5127534606597811  1.0000
  H   H95       1.0  0.886350188010864  0.41594650288797913  0.012753460309720596  1.0000
  H   H96       1.0  0.11364981187739936  0.9159465026853824  0.4872465393958028  1.0000
  H   H97       1.0  0.03162606478595944  0.5503487607233728  0.1034748549316277  1.0000
  H   H98       1.0  0.9683739360611298  0.05034876092596951  0.3965251449202743  1.0000
  H   H99       1.0  0.9683739353027625  0.44965123943390356  0.8965251451239562  1.0000
  H   H100      1.0  0.031626064027592084  0.9496512392313068  0.6034748551353096  1.0000
  H   H101      1.0  0.695192029129296  0.6981871390436462  0.6797915240198924  1.0000
  H   H102      1.0  0.30480797115981034  0.19818713924624282  0.8202084754827879  1.0000
  H   H103      1.0  0.3048079709594259  0.30181286111363026  0.3202084760356916  1.0000
  H   H104      1.0  0.6951920289289115  0.8018128609110335  0.17979152457279612  1.0000
  H   H105      1.0  0.5814113302222753  0.7379848121894391  0.7518070237568741  1.0000
  H   H106      1.0  0.4185886700669051  0.2379848123920359  0.7481929766487703  1.0000
  H   H107      1.0  0.41858866986644655  0.2620151879678372  0.24819297629870984  1.0000
  H   H108      1.0  0.5814113300218168  0.7620151877652405  0.2518070234068136  1.0000
  H   H109      1.0  0.8841511159564556  0.7674165840019733  0.6329378506631786  1.0000
  H   H110      1.0  0.11584888337389881  0.26741658420457  0.8670621495960872  1.0000
  H   H111      1.0  0.11584888317344032  0.2325834161553031  0.3670621492460267  1.0000
  H   H112      1.0  0.884151116714823  0.7325834159527063  0.13293785045949671  1.0000
  H   H113      1.0  0.905470562728289  0.8613885121715997  0.6845706461454637  1.0000
  H   H114      1.0  0.09452943756089148  0.3613885118117267  0.8154293542601807  1.0000
  H   H115      1.0  0.09452943736043297  0.13861148798567655  0.3154293539101202  1.0000
  H   H116      1.0  0.9054705625278304  0.6386114877830799  0.18457064579540322  1.0000
  H   H117      1.0  0.9068926839203489  0.6586251593245267  0.7960079345785716  1.0000
  H   H118      1.0  0.09310731636883143  0.1586251595271234  0.703992065827073  1.0000
  H   H119      1.0  0.09310731616837291  0.34137484027027987  0.20399206547701246  1.0000
  H   H120      1.0  0.9068926837198905  0.8413748406301529  0.296007934228511  1.0000
  H   H121      1.0  0.9419797880616987  0.6826392423987899  0.9525697013603543  1.0000
  H   H122      1.0  0.05802021222740779  0.18263924260138661  0.5474302981423258  1.0000
  H   H123      1.0  0.05802021202702333  0.31736075719601664  0.047430298695229516  1.0000
  H   H124      1.0  0.941979787861314  0.8173607575558897  0.4525697019132582  1.0000
  H   H125      1.0  0.709276276657511  0.8514528603346145  0.7847600551727287  1.0000
  H   H126      1.0  0.2907237236316694  0.3514528605372113  0.7152399452329157  1.0000
  H   H127      1.0  0.29072372343121083  0.14854713926019195  0.21523994488285517  1.0000
  H   H128      1.0  0.7092762764570525  0.648547139620065  0.28476005482266825  1.0000
  H   H129      1.0  0.6710928189129729  0.826582014754986  0.6264865841207112  1.0000
  H   H130      1.0  0.32890718137620756  0.3265820149575829  0.8735134162849332  1.0000
  H   H131      1.0  0.328907181175749  0.17341798540229023  0.3735134159348727  1.0000
  H   H132      1.0  0.6710928187125144  0.6734179851996934  0.12648658377065078  1.0000
  H   H133      1.0  0.7055336905047244  0.6549325554772463  0.8856171085258687  1.0000
  H   H134      1.0  0.294466309784456  0.15493255511737314  0.6143828918797757  1.0000
  H   H135      1.0  0.29446630958399755  0.34506744468003014  0.11438289152971516  1.0000
  H   H136      1.0  0.7055336903042659  0.8450674444774333  0.3856171081758083  1.0000
  H   H137      1.0  0.730815218543078  0.7489286417267272  0.9380993411239035  1.0000
  H   H138      1.0  0.2691847817461024  0.24892864192932396  0.5619006592817409  1.0000
  H   H139      1.0  0.2691847815456439  0.2510713584305492  0.061900658931680376  1.0000
  H   H140      1.0  0.7308152183426195  0.7510713582279525  0.43809934077384305  1.0000
  H   H141      1.0  0.9395330925865878  0.8186099592095898  0.9007610408847669  1.0000
  H   H142      1.0  0.060466907702592616  0.3186099594121866  0.5992389595208776  1.0000
  H   H143      1.0  0.0604669075021341  0.1813900409476865  0.0992389591708171  1.0000
  H   H144      1.0  0.9395330923861293  0.6813900407450898  0.4007610405347064  1.0000
  H   H145      1.0  0.04927066119016195  0.7708407277417437  0.822706502425596  1.0000
  H   H146      1.0  0.9507293390989445  0.27084072794434044  0.6772934970770843  1.0000
  H   H147      1.0  0.9507293388985598  0.22915927185306276  0.17729349762998797  1.0000
  H   H148      1.0  0.04927066098977749  0.7291592722129359  0.32270650297849973  1.0000
  C   C1        1.0  0.19379939767506177  0.5015046021337458  0.7254906600782494  1.0000
  C   C2        1.0  0.8062006026140447  0.0015046017738726885  0.7745093394244308  1.0000
  C   C3        1.0  0.8062006024136602  0.4984953980235306  0.27450933997733457  1.0000
  C   C4        1.0  0.19379939747467728  0.9984953983834037  0.22549066063115314  1.0000
  C   C5        1.0  0.3103177055775681  0.5526243534134354  0.733810648952566  1.0000
  C   C6        1.0  0.6896822947115382  0.05262435361603215  0.7661893505501141  1.0000
  C   C7        1.0  0.6896822945111538  0.44737564674384095  0.26618935110301783  1.0000
  C   C8        1.0  0.3103177053771837  0.9473756465412443  0.23381064950546984  1.0000
  C   C9        1.0  0.06455481427228053  0.5974619999223042  0.5916718931253923  1.0000
  C   C10       1.0  0.9354451850579999  0.09746200012490096  0.9083281062309093  1.0000
  C   C11       1.0  0.9354451858164414  0.40253799967250226  0.40832810693019167  1.0000
  C   C12       1.0  0.06455481407189606  0.9025380000323753  0.09167189367829603  1.0000
  C   C13       1.0  0.18211032309723807  0.6479177892978416  0.603431725561587  1.0000
  C   C14       1.0  0.8178896771919423  0.14791778893796842  0.8965682748440575  1.0000
  C   C15       1.0  0.8178896769914838  0.3520822108594348  0.3965682744939969  1.0000
  C   C16       1.0  0.18211032289677956  0.8520822106568381  0.1034317252115265  1.0000
  C   C17       1.0  0.0690005616671542  0.5465208496925836  0.7035765036014432  1.0000
  C   C18       1.0  0.9309994376632004  0.04652084989518042  0.7964234966578226  1.0000
  C   C19       1.0  0.9309994384215677  0.4534791504646927  0.2964234964541408  1.0000
  C   C20       1.0  0.06900056146669568  0.9534791502620958  0.20357650325138266  1.0000
  C   C21       1.0  0.2099595578575335  0.491686554866829  0.09328464565412335  1.0000
  C   C22       1.0  0.7900404420307299  0.9916865546642322  0.4067153540514001  1.0000
  C   C23       1.0  0.7900404412722885  0.5083134452904473  0.9067153533521178  1.0000
  C   C24       1.0  0.20995955805799205  0.008313444930574274  0.5932846460041838  1.0000
  C   C25       1.0  0.4046421994780516  0.572405724908785  0.1568155435421209  1.0000
  C   C26       1.0  0.5953578004102118  0.07240572511138187  0.34318445616340254  1.0000
  C   C27       1.0  0.5953578006106703  0.4275942752484912  0.8431844565134631  1.0000
  C   C28       1.0  0.4046421996785101  0.9275942750458945  0.6568155438921814  1.0000
  C   C29       1.0  0.18923383635389293  0.6241820044911519  0.16737808135080928  1.0000
  C   C30       1.0  0.8107661635343705  0.12418200413127883  0.3326219183547141  1.0000
  C   C31       1.0  0.810766163734829  0.37581799566612445  0.8326219187047746  1.0000
  C   C32       1.0  0.18923383559552562  0.8758179954635276  0.6673780815544912  1.0000
  C   C33       1.0  0.34712038554712704  0.5089458897592898  0.07357098923694746  1.0000
  C   C34       1.0  0.6528796143411364  0.008945889399416634  0.42642901046857595  1.0000
  C   C35       1.0  0.6528796145415949  0.4910541103979866  0.9264290108186365  1.0000
  C   C36       1.0  0.3471203857475855  0.9910541101953898  0.5735709895870079  1.0000
  C   C37       1.0  0.1273508684110683  0.5627783408576692  0.08189230697377463  1.0000
  C   C38       1.0  0.8726491314772691  0.06277834106026597  0.41810769363471306  1.0000
  C   C39       1.0  0.8726491316776537  0.43722165873713725  0.9181076930818094  1.0000
  C   C40       1.0  0.12735086861145278  0.9372216590970105  0.5818923064208709  1.0000
  C   C41       1.0  0.871019750177906  0.8058064749957697  0.7079613013676535  1.0000
  C   C42       1.0  0.12898025011120046  0.3058064751983665  0.7920386981350267  1.0000
  C   C43       1.0  0.12898024991081597  0.1941935251615066  0.2920386986879306  1.0000
  C   C44       1.0  0.8710197499775214  0.6941935249589098  0.20796130192055712  1.0000
  C   C45       1.0  0.8922371840168692  0.7019871307587254  0.8632354203718465  1.0000
  C   C46       1.0  0.10776281627231103  0.20198713096132218  0.636764580033798  1.0000
  C   C47       1.0  0.10776281607185255  0.29801286939855093  0.1367645796837374  1.0000
  C   C48       1.0  0.8922371838164108  0.7980128691959542  0.36323542002178605  1.0000
  C   C49       1.0  0.728239186921697  0.8112696270466943  0.7145563867581946  1.0000
  C   C50       1.0  0.27176081336748353  0.3112696266868212  0.7854436136474499  1.0000
  C   C51       1.0  0.27176081316702505  0.18873037311058205  0.2854436132973894  1.0000
  C   C52       1.0  0.7282391867212384  0.6887303729079853  0.21455638640813407  1.0000
  C   C53       1.0  0.7497414990071389  0.7086466556080726  0.8681383565904361  1.0000
  C   C54       1.0  0.2502585003231416  0.2086466552481995  0.6318616427658655  1.0000
  C   C55       1.0  0.2502585010815831  0.2913533445492037  0.1318616434651479  1.0000
  C   C56       1.0  0.7497414997655802  0.791353344346607  0.3681383572897184  1.0000
  C   C57       1.0  0.9469659221534513  0.7771408197357464  0.8284556429986409  1.0000
  C   C58       1.0  0.05303407813572916  0.27714081937587337  0.6715443574070035  1.0000
  C   C59       1.0  0.053034077935270645  0.22285918042152988  0.17154435705694301  1.0000
  C   C60       1.0  0.9469659219529929  0.7228591802189331  0.32845564264858046  1.0000
  N   N1        1.0  0.3008392675945275  0.6007216088579962  0.6223700616285247  1.0000
  N   N2        1.0  0.699160731735753  0.10072160849812307  0.8776299377277769  1.0000
  N   N3        1.0  0.6991607324941944  0.39927839129928017  0.3776299384270591  1.0000
  N   N4        1.0  0.30083926739406897  0.8992783910966834  0.12237006127846427  1.0000
  N   N5        1.0  0.32016028668414415  0.6400710267228287  0.14020592612972183  1.0000
  N   N6        1.0  0.6798397132041193  0.14007102636295563  0.35979407357580157  1.0000
  N   N7        1.0  0.6798397134045778  0.35992897343444763  0.8597940739258623  1.0000
  N   N8        1.0  0.32016028688452863  0.8599289732318509  0.6402059255768181  1.0000
  N   N9        1.0  0.6804582952461803  0.7365130108445934  0.7483338834149257  1.0000
  N   N10       1.0  0.31954170504300017  0.23651301048472037  0.7516661169907187  1.0000
  N   N11       1.0  0.31954170484254174  0.2634869893126829  0.2516661166406582  1.0000
  N   N12       1.0  0.6804582950457218  0.7634869891100861  0.24833388306486529  1.0000
  O   O1        1.0  0.5777865154145952  0.5829530756393095  0.6581422906978943  1.0000
  O   O2        1.0  0.4222134839156852  0.08295307527943648  0.8418577086584073  1.0000
  O   O3        1.0  0.4222134846741266  0.41704692451796677  0.3418577093576896  1.0000
  O   O4        1.0  0.5777865152142109  0.91704692431537  0.15814229125079812  1.0000
  O   O5        1.0  0.5780643513208671  0.5812068536940036  0.4352220525179174  1.0000
  O   O6        1.0  0.42193564856747034  0.08120685389660036  0.06477794809057026  1.0000
  O   O7        1.0  0.42193564876785483  0.4187931459008029  0.5647779475376665  1.0000
  O   O8        1.0  0.5780643515212516  0.918793146260676  0.9352220519650138  1.0000
  O   O9        1.0  0.7291389640913095  0.5038445987460316  0.5668986931022939  1.0000
  O   O10       1.0  0.270861035238971  0.00384459894862845  0.9331013062540077  1.0000
  O   O11       1.0  0.27086103599741235  0.4961554014112446  0.43310130695329  1.0000
  O   O12       1.0  0.7291389648497508  0.9961554012086479  0.06689869380157622  1.0000
  O   O13       1.0  0.7540510270465571  0.6405441082978198  0.5751072842131307  1.0000
  O   O14       1.0  0.2459489722837974  0.14054410793794675  0.9248927160461351  1.0000
  O   O15       1.0  0.24594897304216476  0.35945589185945653  0.4248927158424531  1.0000
  O   O16       1.0  0.7540510278049245  0.8594558922193296  0.07510728400944881  1.0000
  O   O17       1.0  0.39224544647598686  0.6728247111308758  0.4275011981435738  1.0000
  O   O18       1.0  0.6077545534122766  0.17282471133347257  0.07249880156194963  1.0000
  O   O19       1.0  0.6077545526539093  0.3271752890264005  0.5724988017656315  1.0000
  O   O20       1.0  0.3922454466763713  0.8271752888238038  0.92750119759067  1.0000
  O   O21       1.0  0.5048455285919397  0.7916248327917639  0.4853924887677155  1.0000
  O   O22       1.0  0.49515447129639784  0.29162483299436065  0.014607511840772204  1.0000
  O   O23       1.0  0.4951544714967823  0.20837516736551248  0.5146075112878685  1.0000
  O   O24       1.0  0.5048455287923241  0.7083751671629157  0.9853924882148117  1.0000
  O   O25       1.0  0.2746083177655529  0.791215108382614  0.41265586286246175  1.0000
  O   O26       1.0  0.7253916821227846  0.2912151085852107  0.08734413774602592  1.0000
  O   O27       1.0  0.725391682323169  0.2087848912121925  0.5873441371931222  1.0000
  O   O28       1.0  0.2746083179659374  0.7087848915720656  0.9126558623095579  1.0000
  O   O29       1.0  0.4229729335930315  0.7629980301363026  0.27031576526573564  1.0000
  O   O30       1.0  0.5770270662952319  0.2629980297764296  0.2296842344397878  1.0000
  O   O31       1.0  0.5770270664956164  0.23700197002097365  0.7296842338868841  1.0000
  O   O32       1.0  0.42297293379348994  0.737001969818377  0.7703157656157962  1.0000
  S   S1        1.0  0.6631662583234491  0.576532595974444  0.566652857217554  1.0000
  S   S2        1.0  0.33683374196573135  0.07653259617704075  0.9333471431880904  1.0000
  S   S3        1.0  0.3368337417652728  0.4234674036203625  0.43334714283803  1.0000
  S   S4        1.0  0.6631662581229906  0.9234674039802355  0.06665285686749348  1.0000
  S   S5        1.0  0.40030717668329996  0.7556590957109727  0.4015821118379355  1.0000
  S   S6        1.0  0.5996928232049634  0.2556590953510996  0.0984178878675879  1.0000
  S   S7        1.0  0.599692823405422  0.2443409044463037  0.5984178882176484  1.0000
  S   S8        1.0  0.40030717688375844  0.7443409042437069  0.901582112187996  1.0000
