data_image0
_chemical_formula_structural       H32B2C32O6Cl6
_chemical_formula_sum              "H32 B2 C32 O6 Cl6"
_cell_length_a       8.299110738948933
_cell_length_b       8.625475419749549
_cell_length_c       12.391538716949714
_cell_angle_alpha    98.75965830904954
_cell_angle_beta     98.26315937712039
_cell_angle_gamma    99.21512451022556

_space_group_name_H-M_alt    "P 1"
_space_group_IT_number       1

loop_
  _space_group_symop_operation_xyz
  'x, y, z'

loop_
  _atom_site_type_symbol
  _atom_site_label
  _atom_site_symmetry_multiplicity
  _atom_site_fract_x
  _atom_site_fract_y
  _atom_site_fract_z
  _atom_site_occupancy
  H   H1        1.0  0.8460796460167489  0.2938441555642335  0.9546285032313729  1.0000
  H   H2        1.0  0.15392035487344366  0.706155845179481  0.04537149750272619  1.0000
  H   H3        1.0  0.3906071075561573  0.16228490133745557  0.0758281742830161  1.0000
  H   H4        1.0  0.609392891722216  0.8377150980207193  0.9241718256171265  1.0000
  H   H5        1.0  0.3641679842944796  0.010854628578253476  0.4603808160593845  1.0000
  H   H6        1.0  0.6358320151918717  0.9891453709921301  0.5396191846696748  1.0000
  H   H7        1.0  0.23883629276038507  0.24381611799183678  0.5254595395368883  1.0000
  H   H8        1.0  0.761163706716384  0.7561838825412236  0.4745404603647065  1.0000
  H   H9        1.0  0.2818137391693657  0.4880581709680775  0.4406570609542974  1.0000
  H   H10       1.0  0.7181862603074034  0.5119418295649828  0.5593429389472974  1.0000
  H   H11       1.0  0.5453468659320038  0.17442305390772597  0.917804434809851  1.0000
  H   H12       1.0  0.454653134750211  0.8255769466237799  0.08219556509533162  1.0000
  H   H13       1.0  0.8999679484010873  0.6316051072091191  0.32815430131494777  1.0000
  H   H14       1.0  0.10003205208273168  0.3683948921475012  0.6718456985887827  1.0000
  H   H15       1.0  0.9574353294231753  0.3485432342260577  0.4922736098636356  1.0000
  H   H16       1.0  0.04256466985519794  0.6514567651321171  0.5077263900365072  1.0000
  H   H17       1.0  0.6927876762367629  0.7023589389383126  0.11904243294692475  1.0000
  H   H18       1.0  0.3072123242470561  0.2976410604183078  0.8809575669568057  1.0000
  H   H19       1.0  0.8913163673904833  0.6567582519883682  0.10496105429528083  1.0000
  H   H20       1.0  0.10868363309333583  0.34324174736825214  0.8950389456084498  1.0000
  H   H21       1.0  0.7912540347119363  0.9860066419028213  0.12247562963406888  1.0000
  H   H22       1.0  0.20874596577188265  0.013993357453799144  0.8775243702696617  1.0000
  H   H23       1.0  0.9119176646660923  0.9005218916829962  0.029283596228866084  1.0000
  H   H24       1.0  0.0880823358177267  0.09947810767362414  0.9707164036748644  1.0000
  H   H25       1.0  0.1478698377087978  0.9314648407562671  0.17835476421531918  1.0000
  H   H26       1.0  0.8521301627750211  0.06853515860035331  0.8216452356884114  1.0000
  H   H27       1.0  0.07083846993602594  0.10874354301346416  0.21835798930700595  1.0000
  H   H28       1.0  0.9291615307461889  0.8912564575180417  0.7816420105981767  1.0000
  H   H29       1.0  0.09632778169609894  0.8822858852809894  0.35618340061769255  1.0000
  H   H30       1.0  0.9036722187877201  0.117714114075631  0.643816599286038  1.0000
  H   H31       1.0  0.9360885551791619  0.9993579900299476  0.355535313638329  1.0000
  H   H32       1.0  0.06391144550305278  0.0006420105015581235  0.6444646862668535  1.0000
  B   B1        1.0  0.8706268410367627  0.39846691349172936  0.3469962066987854  1.0000
  B   B2        1.0  0.1293731584495885  0.601533086078654  0.6530037940302739  1.0000
  C   C1        1.0  0.7768791900940013  0.3323435999648562  0.2233347462915685  1.0000
  C   C2        1.0  0.223120809184372  0.6676563993933186  0.7766652536085742  1.0000
  C   C3        1.0  0.8579850942251943  0.33865797403135545  0.131876858958881  1.0000
  C   C4        1.0  0.14201490505317899  0.6613420253268193  0.8681231409412618  1.0000
  C   C5        1.0  0.7775417091850227  0.28434501032166404  0.02260189623428304  1.0000
  C   C6        1.0  0.22245829129879607  0.7156549890349563  0.9773981036694473  1.0000
  C   C7        1.0  0.5229852726852247  0.21182644496610717  0.090917481097039  1.0000
  C   C8        1.0  0.47701472679154455  0.7881735555669532  0.9090825188045559  1.0000
  C   C9        1.0  0.6055568558492885  0.26800656921820376  0.2000350787343025  1.0000
  C   C10       1.0  0.39444314362748056  0.7319934313148565  0.7999649211672923  1.0000
  C   C11       1.0  0.5075285882694401  0.2621407502525102  0.29143329726767947  1.0000
  C   C12       1.0  0.4924714122143787  0.7378592491041102  0.708566702636051  1.0000
  C   C13       1.0  0.4791147298637664  0.12621563962570867  0.3407834824341415  1.0000
  C   C14       1.0  0.5208852706200526  0.8737843597309117  0.659216517469589  1.0000
  C   C15       1.0  0.3829989966313466  0.11798369726816692  0.4238981586813537  1.0000
  C   C16       1.0  0.6170010028454225  0.8820163032648934  0.5761018412202411  1.0000
  C   C17       1.0  0.31235413523020455  0.24847136472455075  0.459728758132141  1.0000
  C   C18       1.0  0.6876458654520101  0.7515286358069552  0.5402712417730416  1.0000
  C   C19       1.0  0.4335423665745661  0.3907675835524692  0.3300582575946729  1.0000
  C   C20       1.0  0.5664576329022032  0.6092324169805912  0.6699417423069218  1.0000
  C   C21       1.0  0.3367585071089008  0.3856410879223125  0.41319490055137853  1.0000
  C   C22       1.0  0.663241493573314  0.6143589126091934  0.5868050993538041  1.0000
  C   C23       1.0  0.6089567162853617  0.21953959944855359  0.002635797880483931  1.0000
  C   C24       1.0  0.3910432831914074  0.7804604010845069  0.9973642020211109  1.0000
  C   C25       1.0  0.8265690669631449  0.7475734479977305  0.14227167560689824  1.0000
  C   C26       1.0  0.17343093231522838  0.2524265513604441  0.8577283242932443  1.0000
  C   C27       1.0  0.8850622155614436  0.9105383112643083  0.11398408442644478  1.0000
  C   C28       1.0  0.11493778371692984  0.08946168809386655  0.886015915473698  1.0000
  C   C29       1.0  0.04004153410863398  0.977941891806076  0.2027017386719153  1.0000
  C   C30       1.0  0.9599584653681352  0.02205810872698422  0.7972982612296794  1.0000
  C   C31       1.0  0.9924504595692166  0.914673251367752  0.30441781189263817  1.0000
  C   C32       1.0  0.007549541122580207  0.08532674820107702  0.695582188840009  1.0000
  O   O1        1.0  0.9262972554380781  0.5598584366084025  0.3831694888303483  1.0000
  O   O2        1.0  0.07370274524413678  0.44014156392310344  0.6168305110748343  1.0000
  O   O3        1.0  0.8934830467921702  0.29491156033814353  0.41783183637141996  1.0000
  O   O4        1.0  0.10651695389004454  0.7050884401933625  0.5821681635337626  1.0000
  O   O5        1.0  0.8674610101538827  0.7699096057577146  0.2622621667803038  1.0000
  O   O6        1.0  0.13253898933246847  0.23009039381266888  0.7377378339487555  1.0000
  Cl  Cl1       1.0  0.5678758486999728  0.9634746351168565  0.2985840815241988  1.0000
  Cl  Cl2       1.0  0.4321241507863783  0.03652536445352688  0.7014159192048605  1.0000
  Cl  Cl3       1.0  0.4627291993845869  0.5624975079468961  0.2731607732393245  1.0000
  Cl  Cl4       1.0  0.5372708015056057  0.43750249279681847  0.7268392274947746  1.0000
  Cl  Cl5       1.0  0.07033629299713703  0.4163548478933348  0.15394305848424925  1.0000
  Cl  Cl6       1.0  0.9296637064796321  0.5836451526397255  0.8460569414173456  1.0000
