data_image0
_chemical_formula_structural       H72C108N12F40I20
_chemical_formula_sum              "H72 C108 N12 F40 I20"
_cell_length_a       22.43756230840236
_cell_length_b       7.413539180352735
_cell_length_c       20.631630208768467
_cell_angle_alpha    90.0
_cell_angle_beta     90.0
_cell_angle_gamma    90.0

_space_group_name_H-M_alt    "P 1"
_space_group_IT_number       1

loop_
  _space_group_symop_operation_xyz
  'x, y, z'

loop_
  _atom_site_type_symbol
  _atom_site_label
  _atom_site_symmetry_multiplicity
  _atom_site_fract_x
  _atom_site_fract_y
  _atom_site_fract_z
  _atom_site_occupancy
  H   H1        1.0  0.2956659140960117  0.7500000006387569  0.4345434592071023  1.0000
  H   H2        1.0  0.20433408571674969  0.25000000066254674  0.9345434589946018  1.0000
  H   H3        1.0  0.7956659143544542  0.7500000006387569  0.06545654106508979  1.0000
  H   H4        1.0  0.704334085529511  0.25000000066254674  0.5654565408525892  1.0000
  H   H5        1.0  0.23924596692884817  0.6292039627121871  0.47679075528502235  1.0000
  H   H6        1.0  0.26075403288391324  0.37079603724023313  0.9767907550725217  1.0000
  H   H7        1.0  0.7392459671872906  0.8707960372164434  0.0232092445024771  1.0000
  H   H8        1.0  0.7607540326966745  0.12920396273597698  0.5232092447746692  1.0000
  H   H9        1.0  0.7607540326966745  0.37079603724023313  0.5232092447746692  1.0000
  H   H10       1.0  0.7392459671872906  0.6292039627121871  0.0232092445024771  1.0000
  H   H11       1.0  0.26075403288391324  0.12920396273597698  0.9767907550725217  1.0000
  H   H12       1.0  0.23924596692884817  0.8707960372164434  0.47679075528502235  1.0000
  H   H13       1.0  0.1370342494313025  0.7500000006387569  0.4478172532422246  1.0000
  H   H14       1.0  0.36296575038145884  0.25000000066254674  0.9478172535144168  1.0000
  H   H15       1.0  0.6370342496897451  0.7500000006387569  0.05218274654527481  1.0000
  H   H16       1.0  0.8629657501942202  0.25000000066254674  0.5521827468174669  1.0000
  H   H17       1.0  0.12760116721449055  0.629721216335148  0.37386951258566753  1.0000
  H   H18       1.0  0.3723988325982708  0.3702787836172723  0.8738695128578595  1.0000
  H   H19       1.0  0.6276011674729332  0.8702787835934823  0.12613048720183193  1.0000
  H   H20       1.0  0.8723988324110321  0.12972121635893788  0.6261304869893314  1.0000
  H   H21       1.0  0.8723988324110321  0.3702787836172723  0.6261304869893314  1.0000
  H   H22       1.0  0.6276011674729332  0.629721216335148  0.12613048720183193  1.0000
  H   H23       1.0  0.3723988325982708  0.12972121635893788  0.8738695128578595  1.0000
  H   H24       1.0  0.12760116721449055  0.8702787835934823  0.37386951258566753  1.0000
  H   H25       1.0  0.11551659954742  0.7500000006387569  0.1666706646641308  1.0000
  H   H26       1.0  0.3844834007110226  0.25000000066254674  0.6666706644516303  1.0000
  H   H27       1.0  0.6155165993601813  0.7500000006387569  0.33332933512336865  1.0000
  H   H28       1.0  0.8844834005237838  0.25000000066254674  0.8333293353955606  1.0000
  H   H29       1.0  0.11944351766753168  0.870673453390029  0.2411376468877187  1.0000
  H   H30       1.0  0.38055648214522964  0.1293265465623913  0.7411376471599107  1.0000
  H   H31       1.0  0.6194435179259742  0.6293265465386014  0.25886235289978077  1.0000
  H   H32       1.0  0.8805564824036721  0.37067345341381885  0.7588623531719729  1.0000
  H   H33       1.0  0.8805564824036721  0.1293265465623913  0.7588623531719729  1.0000
  H   H34       1.0  0.6194435179259742  0.870673453390029  0.25886235289978077  1.0000
  H   H35       1.0  0.38055648214522964  0.37067345341381885  0.7411376471599107  1.0000
  H   H36       1.0  0.11944351766753168  0.6293265465386014  0.2411376468877187  1.0000
  H   H37       1.0  0.2747063974811479  0.7500000006387569  0.14922702223944997  1.0000
  H   H38       1.0  0.22529360233161347  0.25000000066254674  0.6492270225116421  1.0000
  H   H39       1.0  0.7747063977395905  0.7500000006387569  0.3507729775480495  1.0000
  H   H40       1.0  0.7252936025900562  0.25000000066254674  0.8507729773355488  1.0000
  H   H41       1.0  0.2125564980922203  0.8714337852454184  0.11819007394595771  1.0000
  H   H42       1.0  0.2874435021662223  0.12856621470700183  0.6181900737334571  1.0000
  H   H43       1.0  0.7125564979049817  0.6285662146832119  0.3818099263262344  1.0000
  H   H44       1.0  0.7874435019789836  0.37143378526920834  0.8818099261137338  1.0000
  H   H45       1.0  0.7874435019789836  0.12856621470700183  0.8818099261137338  1.0000
  H   H46       1.0  0.7125564979049817  0.8714337852454184  0.3818099263262344  1.0000
  H   H47       1.0  0.2874435021662223  0.37143378526920834  0.6181900737334571  1.0000
  H   H48       1.0  0.2125564980922203  0.6285662146832119  0.11819007394595771  1.0000
  H   H49       1.0  0.42362767262112644  0.7500000006387569  0.2312680220476293  1.0000
  H   H50       1.0  0.0763723271916349  0.25000000066254674  0.7312680218351287  1.0000
  H   H51       1.0  0.9236276724338878  0.7500000006387569  0.2687319782245628  1.0000
  H   H52       1.0  0.5763723274500775  0.25000000066254674  0.7687319780120623  1.0000
  H   H53       1.0  0.36281219493044137  0.8713083471817114  0.19701711783649856  1.0000
  H   H54       1.0  0.1371878053280012  0.1286916527707089  0.6970171181086907  1.0000
  H   H55       1.0  0.8628121947432027  0.6286916527469191  0.30298288195100087  1.0000
  H   H56       1.0  0.6371878051407626  0.3713083472055012  0.8029828817385003  1.0000
  H   H57       1.0  0.6371878051407626  0.1286916527707089  0.8029828817385003  1.0000
  H   H58       1.0  0.8628121947432027  0.8713083471817114  0.30298288195100087  1.0000
  H   H59       1.0  0.1371878053280012  0.3713083472055012  0.6970171181086907  1.0000
  H   H60       1.0  0.36281219493044137  0.6286916527469191  0.19701711783649856  1.0000
  H   H61       1.0  0.4276832277099216  0.7500000006387569  0.33701104952166744  1.0000
  H   H62       1.0  0.07231677210283974  0.25000000066254674  0.8370110493091668  1.0000
  H   H63       1.0  0.9276832279683642  0.7500000006387569  0.16298895075052464  1.0000
  H   H64       1.0  0.5723167723612823  0.25000000066254674  0.6629889505380241  1.0000
  H   H65       1.0  0.37040333106452206  0.6289089686551252  0.377015841273374  1.0000
  H   H66       1.0  0.12959666919392052  0.3710910312972951  0.8770158410608735  1.0000
  H   H67       1.0  0.8704033308772834  0.8710910312735053  0.12298415851412543  1.0000
  H   H68       1.0  0.6295966690066819  0.12890896867891502  0.6229841587863175  1.0000
  H   H69       1.0  0.6295966690066819  0.3710910312972951  0.6229841587863175  1.0000
  H   H70       1.0  0.8704033308772834  0.6289089686551252  0.12298415851412543  1.0000
  H   H71       1.0  0.12959666919392052  0.12890896867891502  0.8770158410608735  1.0000
  H   H72       1.0  0.37040333106452206  0.8710910312735053  0.377015841273374  1.0000
  C   C1        1.0  0.07952171922579264  0.25000000066254674  0.5216242061873597  1.0000
  C   C2        1.0  0.4204782805869687  0.7500000006387569  0.021624206399860194  1.0000
  C   C3        1.0  0.5795217194842353  0.25000000066254674  0.9783757936598314  1.0000
  C   C4        1.0  0.9204782808454113  0.7500000006387569  0.4783757938723319  1.0000
  C   C5        1.0  0.1238746879806618  0.25000000066254674  0.4741936687020519  1.0000
  C   C6        1.0  0.3761253118320996  0.7500000006387569  0.9741936684895514  1.0000
  C   C7        1.0  0.6238746882391044  0.25000000066254674  0.025806331570140204  1.0000
  C   C8        1.0  0.8761253120905421  0.7500000006387569  0.5258063313576397  1.0000
  C   C9        1.0  0.10902666280658835  0.25000000066254674  0.40862793413275506  1.0000
  C   C10       1.0  0.39097333745185425  0.7500000006387569  0.908627934404947  1.0000
  C   C11       1.0  0.6090266626193497  0.25000000066254674  0.09137206565474439  1.0000
  C   C12       1.0  0.8909733372646155  0.7500000006387569  0.5913720654422439  1.0000
  C   C13       1.0  0.04842467577652669  0.25000000066254674  0.3910383434737597  1.0000
  C   C14       1.0  0.4515753240362346  0.7500000006387569  0.8910383437459518  1.0000
  C   C15       1.0  0.5484246760349692  0.25000000066254674  0.10896165631373973  1.0000
  C   C16       1.0  0.951575323848996  0.7500000006387569  0.6089616561012392  1.0000
  C   C17       1.0  0.0033517299680918353  0.25000000066254674  0.43837329326289204  1.0000
  C   C18       1.0  0.49664827029035075  0.7500000006387569  0.9383732935350841  1.0000
  C   C19       1.0  0.5033517297808532  0.25000000066254674  0.06162670652460746  1.0000
  C   C20       1.0  0.9966482701031121  0.7500000006387569  0.5616267063121069  1.0000
  C   C21       1.0  0.019564316478159198  0.25000000066254674  0.5035400385173987  1.0000
  C   C22       1.0  0.4804356833346021  0.7500000006387569  0.003540038245206591  1.0000
  C   C23       1.0  0.5195643167366018  0.25000000066254674  0.9964599613297922  1.0000
  C   C24       1.0  0.9804356835930448  0.7500000006387569  0.4964599615422928  1.0000
  C   C25       1.0  0.03189702607452993  0.25000000066254674  0.3216596566944835  1.0000
  C   C26       1.0  0.46810297373823145  0.7500000006387569  0.8216596569666755  1.0000
  C   C27       1.0  0.5318970263329725  0.25000000066254674  0.1783403430930159  1.0000
  C   C28       1.0  0.9681029735509928  0.7500000006387569  0.678340343365208  1.0000
  C   C29       1.0  0.024224295069543218  0.0890930450263802  0.2878318853095843  1.0000
  C   C30       1.0  0.4757757047432182  0.9109069549260401  0.7878318850970838  1.0000
  C   C31       1.0  0.5242242953279858  0.41090695494982993  0.21216811496260782  1.0000
  C   C32       1.0  0.9757757050016607  0.5890930450025903  0.7121681147501072  1.0000
  C   C33       1.0  0.9757757050016607  0.9109069549260401  0.7121681147501072  1.0000
  C   C34       1.0  0.5242242953279858  0.0890930450263802  0.21216811496260782  1.0000
  C   C35       1.0  0.4757757047432182  0.5890930450025903  0.7878318850970838  1.0000
  C   C36       1.0  0.024224295069543218  0.41090695494982993  0.2878318853095843  1.0000
  C   C37       1.0  0.010427206698491792  0.08933342953864162  0.2222683134389956  1.0000
  C   C38       1.0  0.4895727935599508  0.9106665704137786  0.7222683132264951  1.0000
  C   C39       1.0  0.5104272065112532  0.41066657043756855  0.2777316868331965  1.0000
  C   C40       1.0  0.9895727933727121  0.5893334295148518  0.7777316866206959  1.0000
  C   C41       1.0  0.9895727933727121  0.9106665704137786  0.7777316866206959  1.0000
  C   C42       1.0  0.5104272065112532  0.08933342953864162  0.2777316868331965  1.0000
  C   C43       1.0  0.4895727935599508  0.5893334295148518  0.7222683132264951  1.0000
  C   C44       1.0  0.010427206698491792  0.41066657043756855  0.2222683134389956  1.0000
  C   C45       1.0  0.002592116255793978  0.25000000066254674  0.18840981350799585  1.0000
  C   C46       1.0  0.49740788355696736  0.7500000006387569  0.6884098132954952  1.0000
  C   C47       1.0  0.5025921165142365  0.25000000066254674  0.3115901862795036  1.0000
  C   C48       1.0  0.9974078833697286  0.7500000006387569  0.8115901865516957  1.0000
  C   C49       1.0  0.9842540043545616  0.25000000066254674  0.11952884406351542  1.0000
  C   C50       1.0  0.5157459955294038  0.7500000006387569  0.6195288443357075  1.0000
  C   C51       1.0  0.4842540045418002  0.25000000066254674  0.38047115572398404  1.0000
  C   C52       1.0  0.01574599571664238  0.7500000006387569  0.8804711559961762  1.0000
  C   C53       1.0  0.027863690868320364  0.25000000066254674  0.07062133797748853  1.0000
  C   C54       1.0  0.4721363093901222  0.7500000006387569  0.5706213382496806  1.0000
  C   C55       1.0  0.5278636906810816  0.25000000066254674  0.42937866181001094  1.0000
  C   C56       1.0  0.9721363092028836  0.7500000006387569  0.929378662082203  1.0000
  C   C57       1.0  0.009334121377417695  0.25000000066254674  0.006241337145780804  1.0000
  C   C58       1.0  0.49066587888102486  0.7500000006387569  0.5062413374179728  1.0000
  C   C59       1.0  0.5093341211901791  0.25000000066254674  0.49375866264171864  1.0000
  C   C60       1.0  0.9906658786937862  0.7500000006387569  0.9937586629139107  1.0000
  C   C61       1.0  0.9489080300860908  0.25000000066254674  0.9903391687059342  1.0000
  C   C62       1.0  0.5510919697978746  0.7500000006387569  0.49033916843374203  1.0000
  C   C63       1.0  0.4489080302733294  0.25000000066254674  0.5096608316259496  1.0000
  C   C64       1.0  0.05109196998511318  0.7500000006387569  0.00966083135375746  1.0000
  C   C65       1.0  0.906096995322288  0.25000000066254674  0.03931560530079986  1.0000
  C   C66       1.0  0.5939030045616771  0.7500000006387569  0.5393156050882993  1.0000
  C   C67       1.0  0.4060969955095268  0.25000000066254674  0.4606843949713923  1.0000
  C   C68       1.0  0.09390300474891576  0.7500000006387569  0.9606843947588917  1.0000
  C   C69       1.0  0.9231060631860054  0.25000000066254674  0.10422594619237108  1.0000
  C   C70       1.0  0.5768939366979599  0.7500000006387569  0.6042259464645632  1.0000
  C   C71       1.0  0.423106063373244  0.25000000066254674  0.39577405359512835  1.0000
  C   C72       1.0  0.07689393688519852  0.7500000006387569  0.8957740533826277  1.0000
  C   C73       1.0  0.23682558456941227  0.7500000006387569  0.33026280817616155  1.0000
  C   C74       1.0  0.26317441568903027  0.25000000066254674  0.8302628084483538  1.0000
  C   C75       1.0  0.7368255843821736  0.7500000006387569  0.16973719161133788  1.0000
  C   C76       1.0  0.7631744155017915  0.25000000066254674  0.66973719188353  1.0000
  C   C77       1.0  0.2321750557568004  0.7500000006387569  0.2626206909087203  1.0000
  C   C78       1.0  0.26782494405596097  0.25000000066254674  0.7626206906962197  1.0000
  C   C79       1.0  0.7321750560152429  0.7500000006387569  0.2373793093634718  1.0000
  C   C80       1.0  0.7678249438687222  0.25000000066254674  0.7373793091509713  1.0000
  C   C81       1.0  0.2877442870691113  0.7500000006387569  0.29203963715088593  1.0000
  C   C82       1.0  0.21225571318933123  0.25000000066254674  0.792039637423078  1.0000
  C   C83       1.0  0.7877442868818727  0.7500000006387569  0.20796036263661352  1.0000
  C   C84       1.0  0.7122557130020927  0.25000000066254674  0.707960362424113  1.0000
  C   C85       1.0  0.24847729059730364  0.7500000006387569  0.44743654362691454  1.0000
  C   C86       1.0  0.2515227092154577  0.25000000066254674  0.9474365438991067  1.0000
  C   C87       1.0  0.748477290410065  0.7500000006387569  0.05256345616058488  1.0000
  C   C88       1.0  0.7515227094739003  0.25000000066254674  0.5525634559480843  1.0000
  C   C89       1.0  0.14757146273238655  0.7500000006387569  0.3960094232654289  1.0000
  C   C90       1.0  0.35242853708037475  0.25000000066254674  0.896009423537621  1.0000
  C   C91       1.0  0.6475714629908291  0.7500000006387569  0.10399057652207058  1.0000
  C   C92       1.0  0.8524285368931361  0.25000000066254674  0.6039905767942627  1.0000
  C   C93       1.0  0.1348108256335525  0.7500000006387569  0.21519452777478892  1.0000
  C   C94       1.0  0.36518917462489003  0.25000000066254674  0.7151945275622884  1.0000
  C   C95       1.0  0.6348108254463138  0.7500000006387569  0.2848054724974032  1.0000
  C   C96       1.0  0.8651891744376514  0.25000000066254674  0.7848054722849025  1.0000
  C   C97       1.0  0.22618611461635935  0.7500000006387569  0.14493369693729552  1.0000
  C   C98       1.0  0.273813885196402  0.25000000066254674  0.644933696724795  1.0000
  C   C99       1.0  0.7261861148748019  0.7500000006387569  0.3550663033348966  1.0000
  C   C100      1.0  0.7738138854548445  0.25000000066254674  0.8550663031223961  1.0000
  C   C101      1.0  0.37529251815588976  0.7500000006387569  0.22459042950618058  1.0000
  C   C102      1.0  0.12470748210255278  0.25000000066254674  0.7245904297783726  1.0000
  C   C103      1.0  0.875292517968651  0.7500000006387569  0.27540957028131885  1.0000
  C   C104      1.0  0.6247074819153141  0.25000000066254674  0.775409570553511  1.0000
  C   C105      1.0  0.38037151597363955  0.7500000006387569  0.3482318089894099  1.0000
  C   C106      1.0  0.11962848428480302  0.25000000066254674  0.848231809261602  1.0000
  C   C107      1.0  0.8803715157864009  0.7500000006387569  0.1517681907980895  1.0000
  C   C108      1.0  0.6196284840975643  0.25000000066254674  0.6517681910702816  1.0000
  N   N1        1.0  0.21212882195396143  0.7500000006387569  0.388856244941339  1.0000
  N   N2        1.0  0.2878711783044811  0.25000000066254674  0.888856245213531  1.0000
  N   N3        1.0  0.7121288217667228  0.7500000006387569  0.11114375484616042  1.0000
  N   N4        1.0  0.7878711781172424  0.25000000066254674  0.6111437551183525  1.0000
  N   N5        1.0  0.19942324030112554  0.7500000006387569  0.2093578590878511  1.0000
  N   N6        1.0  0.30057675995731703  0.25000000066254674  0.7093578593600431  1.0000
  N   N7        1.0  0.6994232401138869  0.7500000006387569  0.29064214069964833  1.0000
  N   N8        1.0  0.8005767597700784  0.25000000066254674  0.7906421404871478  1.0000
  N   N9        1.0  0.34661297083452036  0.7500000006387569  0.28810667551969527  1.0000
  N   N10       1.0  0.15338702897824097  0.25000000066254674  0.7881066757918875  1.0000
  N   N11       1.0  0.846612971092963  0.7500000006387569  0.21189332426780416  1.0000
  N   N12       1.0  0.6533870292366836  0.25000000066254674  0.7118933245399962  1.0000
  F   F1        1.0  0.09451475034816297  0.25000000066254674  0.5848254528559734  1.0000
  F   F2        1.0  0.40548524946459835  0.7500000006387569  0.08482545306847401  1.0000
  F   F3        1.0  0.5945147501609244  0.25000000066254674  0.9151745469912176  1.0000
  F   F4        1.0  0.905485249723041  0.7500000006387569  0.41517454671902543  1.0000
  F   F5        1.0  0.1813692184589977  0.25000000066254674  0.493897662321869  1.0000
  F   F6        1.0  0.31863078135376366  0.7500000006387569  0.9938976621093685  1.0000
  F   F7        1.0  0.6813692187174403  0.25000000066254674  0.006102337465630412  1.0000
  F   F8        1.0  0.8186307816122063  0.7500000006387569  0.5061023377378225  1.0000
  F   F9        1.0  0.9781039810987675  0.25000000066254674  0.5509696134030574  1.0000
  F   F10       1.0  0.5218960187851976  0.7500000006387569  0.050969613130865184  1.0000
  F   F11       1.0  0.47810398128600623  0.25000000066254674  0.9490303864441337  1.0000
  F   F12       1.0  0.021896018972436315  0.7500000006387569  0.44903038665663425  1.0000
  F   F13       1.0  0.030048392990869716  0.9302212306743186  0.3193235174988752  1.0000
  F   F14       1.0  0.46995160726757285  0.06977876927810162  0.8193235177710674  1.0000
  F   F15       1.0  0.5300483928036311  0.5697787692543117  0.1806764822886242  1.0000
  F   F16       1.0  0.9699516070803342  0.4302212306981085  0.6806764825608164  1.0000
  F   F17       1.0  0.9699516070803342  0.06977876927810162  0.6806764825608164  1.0000
  F   F18       1.0  0.5300483928036311  0.9302212306743186  0.1806764822886242  1.0000
  F   F19       1.0  0.46995160726757285  0.4302212306981085  0.8193235177710674  1.0000
  F   F20       1.0  0.030048392990869716  0.5697787692543117  0.3193235174988752  1.0000
  F   F21       1.0  0.004323315013755926  0.9306336747075414  0.1907585527743387  1.0000
  F   F22       1.0  0.4956766847990054  0.0693663252448788  0.6907585530465308  1.0000
  F   F23       1.0  0.5043233148265173  0.569366325221089  0.30924144701316075  1.0000
  F   F24       1.0  0.9956766850574481  0.43063367473133135  0.809241447285353  1.0000
  F   F25       1.0  0.9956766850574481  0.0693663252448788  0.809241447285353  1.0000
  F   F26       1.0  0.5043233148265173  0.9306336747075414  0.30924144701316075  1.0000
  F   F27       1.0  0.4956766847990054  0.43063367473133135  0.6907585530465308  1.0000
  F   F28       1.0  0.004323315013755926  0.569366325221089  0.1907585527743387  1.0000
  F   F29       1.0  0.04917239024610245  0.25000000066254674  0.9571618815466729  1.0000
  F   F30       1.0  0.4508276100123401  0.7500000006387569  0.45716188175917344  1.0000
  F   F31       1.0  0.5491723900588638  0.25000000066254674  0.5428381183005182  1.0000
  F   F32       1.0  0.9508276098251015  0.7500000006387569  0.04283811851301869  1.0000
  F   F33       1.0  0.9323608800482738  0.25000000066254674  0.9274615450342641  1.0000
  F   F34       1.0  0.5676391202813726  0.7500000006387569  0.42746154476207204  1.0000
  F   F35       1.0  0.4323608797898313  0.25000000066254674  0.5725384552976195  1.0000
  F   F36       1.0  0.06763912002293011  0.7500000006387569  0.07253845502542737  1.0000
  F   F37       1.0  0.8479616617209402  0.25000000066254674  0.021839579104539222  1.0000
  F   F38       1.0  0.652038338163025  0.7500000006387569  0.5218395793767313  1.0000
  F   F39       1.0  0.34796166190817895  0.25000000066254674  0.47816042068296016  1.0000
  F   F40       1.0  0.15203833835026362  0.7500000006387569  0.9781604204704596  1.0000
  I   I1        1.0  0.17678821903547706  0.25000000066254674  0.3364179824747988  1.0000
  I   I2        1.0  0.3232117812229655  0.7500000006387569  0.836417982746991  1.0000
  I   I3        1.0  0.6767882188482384  0.25000000066254674  0.1635820173127006  1.0000
  I   I4        1.0  0.8232117810357268  0.7500000006387569  0.6635820175848928  1.0000
  I   I5        1.0  0.9124300567327422  0.25000000066254674  0.4099351827469987  1.0000
  I   I6        1.0  0.5875699431512231  0.7500000006387569  0.9099351825344981  1.0000
  I   I7        1.0  0.4124300569199808  0.25000000066254674  0.09006481752519341  1.0000
  I   I8        1.0  0.08756994333846177  0.7500000006387569  0.5900648173126929  1.0000
  I   I9        1.0  0.11974816707222394  0.25000000066254674  0.09457072176345813  1.0000
  I   I10       1.0  0.3802518327405374  0.7500000006387569  0.5945707215509576  1.0000
  I   I11       1.0  0.6197481673306665  0.25000000066254674  0.405429278508734  1.0000
  I   I12       1.0  0.88025183299898  0.7500000006387569  0.9054292782962333  1.0000
  I   I13       1.0  0.8570264044592294  0.25000000066254674  0.17929513676664563  1.0000
  I   I14       1.0  0.6429735954247359  0.7500000006387569  0.6792951365541451  1.0000
  I   I15       1.0  0.35702640420078685  0.25000000066254674  0.3207048630208538  1.0000
  I   I16       1.0  0.1429735956119745  0.7500000006387569  0.8207048632930459  1.0000
  I   I17       1.0  0.2677856349729208  0.25000000066254674  0.18729497382895657  1.0000
  I   I18       1.0  0.23221436483984054  0.7500000006387569  0.6872949741011487  1.0000
  I   I19       1.0  0.7677856347856822  0.25000000066254674  0.3127050259585428  1.0000
  I   I20       1.0  0.7322143650982832  0.7500000006387569  0.812705026230735  1.0000
