data_image0
_chemical_formula_structural       H72C108N12F40Br4I16
_chemical_formula_sum              "H72 C108 N12 F40 Br4 I16"
_cell_length_a       7.711572747962798
_cell_length_b       21.627321995003005
_cell_length_c       19.75608226251165
_cell_angle_alpha    90.0
_cell_angle_beta     93.61355499147008
_cell_angle_gamma    90.0

_space_group_name_H-M_alt    "P 1"
_space_group_IT_number       1

loop_
  _space_group_symop_operation_xyz
  'x, y, z'

loop_
  _atom_site_type_symbol
  _atom_site_label
  _atom_site_symmetry_multiplicity
  _atom_site_fract_x
  _atom_site_fract_y
  _atom_site_fract_z
  _atom_site_occupancy
  H   H1        1.0  0.2735499146541567  0.10688143777274348  0.26477544325282426  1.0000
  H   H2        1.0  0.2264500854706787  0.6068814378882685  0.23522455673395806  1.0000
  H   H3        1.0  0.726450085595514  0.8931185619959284  0.7352245567207404  1.0000
  H   H4        1.0  0.773549914778992  0.3931185618804035  0.7647754432396067  1.0000
  H   H5        1.0  0.047618412080758614  0.12334238934512284  0.2726005209144224  1.0000
  H   H6        1.0  0.45238158804407674  0.6233423894606479  0.22739947907236002  1.0000
  H   H7        1.0  0.9523815881689122  0.8766576104235492  0.7273994790591423  1.0000
  H   H8        1.0  0.5476184122055939  0.3766576107704022  0.7726005209012047  1.0000
  H   H9        1.0  0.21167380862932267  0.16074068813527723  0.32637004114199186  1.0000
  H   H10       1.0  0.2883261914955127  0.6607406882508022  0.17362995884479046  1.0000
  H   H11       1.0  0.7883261916203481  0.8392593120957728  0.6736299588315727  1.0000
  H   H12       1.0  0.711673808754158  0.3392593119802478  0.826370041128774  1.0000
  H   H13       1.0  0.004300882389321603  0.2652317610717296  0.2190522959854802  1.0000
  H   H14       1.0  0.49569911773551384  0.7652317611872547  0.28094770400130215  1.0000
  H   H15       1.0  0.9956991178603491  0.7347682386969424  0.7809477039880844  1.0000
  H   H16       1.0  0.504300882514157  0.23476823858141732  0.7190522959722625  1.0000
  H   H17       1.0  0.2271401851568505  0.2900594813102346  0.23268236372561696  1.0000
  H   H18       1.0  0.27285981496798484  0.7900594814257597  0.26731763626116534  1.0000
  H   H19       1.0  0.7728598150928203  0.7099405189208154  0.7673176362479477  1.0000
  H   H20       1.0  0.7271401852816858  0.2099405188052904  0.7326823637123993  1.0000
  H   H21       1.0  0.11740103448519497  0.25586294462525433  0.29978480196632085  1.0000
  H   H22       1.0  0.38259896563964046  0.7558629447407794  0.2002151980204615  1.0000
  H   H23       1.0  0.8825989657644758  0.7441370551434177  0.7002151980072439  1.0000
  H   H24       1.0  0.6174010346100304  0.24413705502789257  0.7997848019531031  1.0000
  H   H25       1.0  0.3523881571550526  0.3361711580231637  0.08358353137859276  1.0000
  H   H26       1.0  0.14761184296978277  0.8361711581386888  0.41641646860818954  1.0000
  H   H27       1.0  0.6476118430946183  0.6638288422078863  0.9164164685949718  1.0000
  H   H28       1.0  0.852388157279888  0.16382884209236132  0.5835835313653751  1.0000
  H   H29       1.0  0.15693120435677302  0.3129475189560592  0.12052384448647148  1.0000
  H   H30       1.0  0.3430687957680623  0.8129475190715844  0.37947615550031083  1.0000
  H   H31       1.0  0.8430687958928976  0.6870524808126127  0.8794761554870931  1.0000
  H   H32       1.0  0.6569312044816085  0.18705248069708771  0.6205238444732538  1.0000
  H   H33       1.0  0.14936129778716542  0.33729343381882665  0.03449372089286902  1.0000
  H   H34       1.0  0.35063870233766997  0.8372934339343517  0.4655062790939133  1.0000
  H   H35       1.0  0.8506387024625053  0.6627065664122235  0.9655062790806956  1.0000
  H   H36       1.0  0.6493612979120009  0.16270656629669838  0.5344937208796514  1.0000
  H   H37       1.0  0.2812975654412378  0.19316472427632245  0.9669757131857394  1.0000
  H   H38       1.0  0.21870243438306053  0.6931647239294694  0.533024286614289  1.0000
  H   H39       1.0  0.718702434808433  0.8068352759547276  0.033024286787825305  1.0000
  H   H40       1.0  0.7812975658666101  0.30683527583920256  0.46697571335927557  1.0000
  H   H41       1.0  0.4612088553338693  0.24335328854936525  0.9879465095011839  1.0000
  H   H42       1.0  0.03879114449042897  0.7433532882025121  0.5120534902988444  1.0000
  H   H43       1.0  0.5387911449158014  0.7566467116816848  0.012053490472380668  1.0000
  H   H44       1.0  0.9612088544622898  0.25664671156615976  0.48794650967345854  1.0000
  H   H45       1.0  0.26144698732793575  0.2737488710515302  0.9509764605035795  1.0000
  H   H46       1.0  0.23855301257502914  0.7737488711670552  0.549023539803629  1.0000
  H   H47       1.0  0.7385530117034496  0.7262511287171418  0.049023539975903474  1.0000
  H   H48       1.0  0.7614469876746416  0.22625112906399486  0.45097646016993564  1.0000
  H   H49       1.0  0.5544481917667733  0.0826386101068336  0.037793098783182676  1.0000
  H   H50       1.0  0.9455518075326513  0.5826386102223586  0.46220690085547644  1.0000
  H   H51       1.0  0.44555180718594545  0.9173613901242165  0.9622069011891203  1.0000
  H   H52       1.0  0.054448192717019464  0.4173613900086915  0.5377930991180883  1.0000
  H   H53       1.0  0.35561390191587516  0.10787092505207212  0.995444234576184  1.0000
  H   H54       1.0  0.14438609790842316  0.6078709251675971  0.5045557652238444  1.0000
  H   H55       1.0  0.6443860983337956  0.8921290747165997  0.00455576539738063  1.0000
  H   H56       1.0  0.8556139010442956  0.3921290750634529  0.4954442347484585  1.0000
  H   H57       1.0  0.38298558545327627  0.028531994397761044  0.015598938108684558  1.0000
  H   H58       1.0  0.11701441337460707  0.5285319945132861  0.4844010618768361  1.0000
  H   H59       1.0  0.6170144134994424  0.9714680053709109  0.9844010618636183  1.0000
  H   H60       1.0  0.8829855855781116  0.4714680057177639  0.5155989380954669  1.0000
  H   H61       1.0  0.25988307160283447  0.03685443903707363  0.18320435244959166  1.0000
  H   H62       1.0  0.24011692852200092  0.5368544386902205  0.31679564753719064  1.0000
  H   H63       1.0  0.7401169286468363  0.9631455611939763  0.8167956475239729  1.0000
  H   H64       1.0  0.7598830704307177  0.46314556107845145  0.6832043524351122  1.0000
  H   H65       1.0  0.4905696244617063  0.05061337461258101  0.18190319671304492  1.0000
  H   H66       1.0  0.009430375663129075  0.550613374728106  0.31809680327373735  1.0000
  H   H67       1.0  0.5094303757879645  0.9493866256184691  0.8180968032605198  1.0000
  H   H68       1.0  0.9905696246652083  0.449386625502944  0.6819031972070073  1.0000
  H   H69       1.0  0.3854127983206466  0.9945139756540168  0.1269263128539094  1.0000
  H   H70       1.0  0.11458720180418873  0.4945139755384917  0.3730736871328729  1.0000
  H   H71       1.0  0.6145872019290242  0.005486024114655232  0.8730736871196554  1.0000
  H   H72       1.0  0.885412798445482  0.5054860242301803  0.6269263128406918  1.0000
  C   C1        1.0  0.700535480366627  0.40515263803926094  0.2209151645164852  1.0000
  C   C2        1.0  0.7994645190114641  0.905152638154786  0.27908483562935393  1.0000
  C   C3        1.0  0.2994645198830437  0.594847361729411  0.7790848354570794  1.0000
  C   C4        1.0  0.20053548123820666  0.09484736207626407  0.7209151643442107  1.0000
  C   C5        1.0  0.7442890556909032  0.39138194696300044  0.28900376123184135  1.0000
  C   C6        1.0  0.7557109449054734  0.8913819470785255  0.2109962384080795  1.0000
  C   C7        1.0  0.2557109445587676  0.6086180528056715  0.7109962387417232  1.0000
  C   C8        1.0  0.24428905534419731  0.10861805315252455  0.7890037615654852  1.0000
  C   C9        1.0  0.9211761112492639  0.3916213422982711  0.30899257867169033  1.0000
  C   C10       1.0  0.5788238881288273  0.8916213424137961  0.19100742147414881  1.0000
  C   C11       1.0  0.07882388770345485  0.6083786574704009  0.6910074213006125  1.0000
  C   C12       1.0  0.4211761121208435  0.1083786578172539  0.8089925784994159  1.0000
  C   C13       1.0  0.04788627544598086  0.4056666129087602  0.2643310716871787  1.0000
  C   C14       1.0  0.45211372338190253  0.9056666130242852  0.23566892829834193  1.0000
  C   C15       1.0  0.9521137235067378  0.5943333868599118  0.7356689282851243  1.0000
  C   C16       1.0  0.5478862755708163  0.09433338674438672  0.7643310716739611  1.0000
  C   C17       1.0  0.9966661973731635  0.4197065287185011  0.19733908756297888  1.0000
  C   C18       1.0  0.5033338019262611  0.9197065288340261  0.3026609120756803  1.0000
  C   C19       1.0  0.003333802876507284  0.580293471512549  0.8026609124105858  1.0000
  C   C20       1.0  0.4966661970264576  0.08029347139702392  0.6973390878966227  1.0000
  C   C21       1.0  0.8221785526237907  0.4192790597049017  0.17369223653124588  1.0000
  C   C22       1.0  0.6778214467543006  0.9192790598204267  0.3263077636145933  1.0000
  C   C23       1.0  0.17782144632892807  0.5807209405261483  0.826307763441057  1.0000
  C   C24       1.0  0.3221785534953703  0.08072094041062328  0.6736922363589714  1.0000
  C   C25       1.0  0.6123428685615311  0.3784089417955171  0.33890956661220883  1.0000
  C   C26       1.0  0.8876571308165601  0.878408941448664  0.1610904335336303  1.0000
  C   C27       1.0  0.38765713039118765  0.6215910584355329  0.6610904333600941  1.0000
  C   C28       1.0  0.11234286943311067  0.1215910583200079  0.8389095664399343  1.0000
  C   C29       1.0  0.5516593246362167  0.3177383959783711  0.34772697382546214  1.0000
  C   C30       1.0  0.9483406760388265  0.8177383960938961  0.1522730263216388  1.0000
  C   C31       1.0  0.44834067561345414  0.682261604252679  0.6522730261481026  1.0000
  C   C32       1.0  0.051659324210844224  0.18226160413715392  0.8477269736519258  1.0000
  C   C33       1.0  0.4319079338791896  0.30643574555977193  0.3960817197812273  1.0000
  C   C34       1.0  0.06809206494869376  0.806435745675297  0.10391828020429329  1.0000
  C   C35       1.0  0.5680920650735292  0.6935642542089  0.6039182801910757  1.0000
  C   C36       1.0  0.9319079340040249  0.19356425409337502  0.8960817197680097  1.0000
  C   C37       1.0  0.37040539823326984  0.35421507488398285  0.4353413809697259  1.0000
  C   C38       1.0  0.12959460189156558  0.854215074999508  0.0646586190170564  1.0000
  C   C39       1.0  0.6295946020164009  0.6457849253470671  0.5646586190038387  1.0000
  C   C40       1.0  0.8704053983581053  0.14578492523154213  0.9353413809565083  1.0000
  C   C41       1.0  0.4293569118773789  0.4142811343942704  0.42542435040469984  1.0000
  C   C42       1.0  0.07064308824745653  0.9142811345097954  0.07457564958208254  1.0000
  C   C43       1.0  0.57064308707534  0.5857188658367797  0.5745756495676032  1.0000
  C   C44       1.0  0.9293569120022142  0.08571886572125466  0.925424350391482  1.0000
  C   C45       1.0  0.5498716762639927  0.4272331758011871  0.37777992025736684  1.0000
  C   C46       1.0  0.950128324332384  0.9272331759167121  0.12222007938255397  1.0000
  C   C47       1.0  0.4501283239856781  0.5727668244298629  0.6222200797161977  1.0000
  C   C48       1.0  0.04987167591728672  0.07276682431433791  0.8777799205910106  1.0000
  C   C49       1.0  0.7728491149552398  0.43126943096121895  0.10108937882868078  1.0000
  C   C50       1.0  0.7271508856411368  0.9312694310767439  0.39891062081124007  1.0000
  C   C51       1.0  0.227150885294431  0.568730568807453  0.8989106211448838  1.0000
  C   C52       1.0  0.2728491146085339  0.06873056869192803  0.6010893791623245  1.0000
  C   C53       1.0  0.7692585264883482  0.49209853732510267  0.07568905790484676  1.0000
  C   C54       1.0  0.7307414741080285  0.9920985374406276  0.4243109417350741  1.0000
  C   C55       1.0  0.23074147376132256  0.5079014629059475  0.9243109420687179  1.0000
  C   C56       1.0  0.2692585261416423  0.00790146279042239  0.5756890582384905  1.0000
  C   C57       1.0  0.7285237893424439  0.5020551718103964  0.006774345664531936  1.0000
  C   C58       1.0  0.7714762113325991  0.0020551716948714075  0.49322565448256894  1.0000
  C   C59       1.0  0.27147621090722673  0.49794482842065363  0.9932256543090326  1.0000
  C   C60       1.0  0.22852378891707154  0.9979448280738006  0.5067743454909956  1.0000
  C   C61       1.0  0.6901317821734155  0.4527076011658853  0.9629418056001079  1.0000
  C   C62       1.0  0.8098682182797572  0.9527076008190322  0.5370581948674191  1.0000
  C   C63       1.0  0.3098682181549218  0.5472923990651647  0.03705819488063682  1.0000
  C   C64       1.0  0.1901317820485801  0.04729239894963971  0.46294180561332543  1.0000
  C   C65       1.0  0.6909999086053187  0.3927618085106713  0.9887442739019304  1.0000
  C   C66       1.0  0.8090000917691875  0.8927618086261963  0.5112557260584165  1.0000
  C   C67       1.0  0.30900009164435205  0.6072381912580007  0.011255726071634197  1.0000
  C   C68       1.0  0.19099990848048332  0.10723819114247564  0.48874427391514813  1.0000
  C   C69       1.0  0.7338995778565135  0.3811678307607707  0.05708454518214375  1.0000
  C   C70       1.0  0.766100421442911  0.8811678308762957  0.4429154544565154  1.0000
  C   C71       1.0  0.26610042239315723  0.6188321690079013  0.9429154547914208  1.0000
  C   C72       1.0  0.2338995788067597  0.11883216889237622  0.5570845455170492  1.0000
  C   C73       1.0  0.2303109596632964  0.18237903430259866  0.163531752234257  1.0000
  C   C74       1.0  0.26968904046153896  0.6823790344181238  0.3364682477525253  1.0000
  C   C75       1.0  0.7696890405863743  0.8176209654660732  0.8364682477393076  1.0000
  C   C76       1.0  0.7303109597881319  0.3176209653505483  0.6635317522210393  1.0000
  C   C77       1.0  0.2558461149743463  0.20338389981969604  0.09821640746803412  1.0000
  C   C78       1.0  0.2441538851504891  0.703383899472843  0.4017835925187482  1.0000
  C   C79       1.0  0.7441538852753244  0.796616100411354  0.9017835925055305  1.0000
  C   C80       1.0  0.7558461151778483  0.29661610029582897  0.5982164079619965  1.0000
  C   C81       1.0  0.2877829945948572  0.14187425843610896  0.1149983456766901  1.0000
  C   C82       1.0  0.2122170055299782  0.6418742585516339  0.3850016543100922  1.0000
  C   C83       1.0  0.7122170043578615  0.858125741794941  0.8850016542956128  1.0000
  C   C84       1.0  0.7877829947196927  0.3581257416794161  0.6149983456634724  1.0000
  C   C85       1.0  0.17956806943150969  0.14306895928746585  0.27519933984523604  1.0000
  C   C86       1.0  0.3204319306933257  0.6430689594029909  0.2248006601415463  1.0000
  C   C87       1.0  0.820431929521209  0.856931040481206  0.7248006601270669  1.0000
  C   C88       1.0  0.6795680695563451  0.3569310403656811  0.7751993398320184  1.0000
  C   C89       1.0  0.13140938852513  0.2548156767293386  0.24499259442550808  1.0000
  C   C90       1.0  0.36859061159970535  0.7548156768448636  0.2550074055612742  1.0000
  C   C91       1.0  0.8685906117245408  0.7451843230393334  0.7550074055480566  1.0000
  C   C92       1.0  0.6314093873530133  0.24518432292380832  0.7449925944110287  1.0000
  C   C93       1.0  0.22696636019241537  0.3124241545745322  0.07414417749929711  1.0000
  C   C94       1.0  0.2730336399324201  0.8124241542276791  0.4258558224874852  1.0000
  C   C95       1.0  0.7730336400572554  0.6875758456565177  0.9258558224742676  1.0000
  C   C96       1.0  0.7269663603172507  0.18757584554099277  0.5741441774860794  1.0000
  C   C97       1.0  0.31878726707876076  0.23904098765415738  0.986176214821513  1.0000
  C   C98       1.0  0.18121273274553756  0.7390409877696824  0.5138237849785156  1.0000
  C   C99       1.0  0.68121273317091  0.7609590125768927  0.013823785152051718  1.0000
  C   C100      1.0  0.8187872675041331  0.2609590124613676  0.48617621499504915  1.0000
  C   C101      1.0  0.41286437936473613  0.07559628234960176  0.03317543079105291  1.0000
  C   C102      1.0  0.08713562076009926  0.5755962824651268  0.46682456919572946  1.0000
  C   C103      1.0  0.5871356208849347  0.9244037178814483  0.9668245691825118  1.0000
  C   C104      1.0  0.9128643794895716  0.4244037177659233  0.5331754307778351  1.0000
  C   C105      1.0  0.37059477656856876  0.03954078087881546  0.15111356610704885  1.0000
  C   C106      1.0  0.1294052235562666  0.5395407809943404  0.34888643387973345  1.0000
  C   C107      1.0  0.6294052236811021  0.9604592193522347  0.8488864338665157  1.0000
  C   C108      1.0  0.8705947766934042  0.46045921923670957  0.6511135660938312  1.0000
  N   N1        1.0  0.19283991040366935  0.19362096476704432  0.22695635360838445  1.0000
  N   N2        1.0  0.30716008972116604  0.6936209644201913  0.27304364637839784  1.0000
  N   N3        1.0  0.8071600898460014  0.8063790354640057  0.7730436463651802  1.0000
  N   N4        1.0  0.6928399105285047  0.3063790353484807  0.7269563535951669  1.0000
  N   N5        1.0  0.25097716970665357  0.24878877473795397  0.052635283848574216  1.0000
  N   N6        1.0  0.24902283041818185  0.748788774853479  0.44736471613820816  1.0000
  N   N7        1.0  0.7490228292460652  0.7512112250307179  0.9473647161237287  1.0000
  N   N8        1.0  0.750977169831489  0.25121122537757107  0.5526352838353565  1.0000
  N   N9        1.0  0.3357411402402588  0.08533096240146598  0.09777094788615585  1.0000
  N   N10       1.0  0.16425885988457656  0.585330962516991  0.4022290521006264  1.0000
  N   N11       1.0  0.6642588600094119  0.9146690373672061  0.9022290520874088  1.0000
  N   N12       1.0  0.8357411403650942  0.41466903771405905  0.5977709478729382  1.0000
  F   F1        1.0  0.5301934007899479  0.4048322474702575  0.19939791429095993  1.0000
  F   F2        1.0  0.9698065998850953  0.9048322471234045  0.30060208585614095  1.0000
  F   F3        1.0  0.46980659945972286  0.5951677527607926  0.8006020856826047  1.0000
  F   F4        1.0  0.030193400364575473  0.09516775264526753  0.6993979141174237  1.0000
  F   F5        1.0  0.9738903821215781  0.37813675599269975  0.37409351545843833  1.0000
  F   F6        1.0  0.5261096172565132  0.8781367556458467  0.12590648468740082  1.0000
  F   F7        1.0  0.026109618128092683  0.6218632442383504  0.6259064845151262  1.0000
  F   F8        1.0  0.47389038169620556  0.12186324412282529  0.874093515284902  1.0000
  F   F9        1.0  0.2179593333060851  0.4053350605324809  0.2852667897845904  1.0000
  F   F10       1.0  0.2820406668187503  0.905335060648006  0.21473321020219183  1.0000
  F   F11       1.0  0.7820406669435856  0.594664939236191  0.7147332101889742  1.0000
  F   F12       1.0  0.7179593334309206  0.09466493958304409  0.7852667897713728  1.0000
  F   F13       1.0  0.12119939226744451  0.4328931396204839  0.15448761634615216  1.0000
  F   F14       1.0  0.37880060785739084  0.9328931397360091  0.3455123836406302  1.0000
  F   F15       1.0  0.8788006079822263  0.567106860148188  0.8455123836274124  1.0000
  F   F16       1.0  0.6211993923922798  0.06710686049504107  0.6544876163329344  1.0000
  F   F17       1.0  0.37091740844120685  0.24856894539426092  0.4061892525724531  1.0000
  F   F18       1.0  0.1290825916836285  0.7485689455097859  0.09381074741432929  1.0000
  F   F19       1.0  0.6290825905115119  0.7514310543744109  0.59381074739985  1.0000
  F   F20       1.0  0.8709174085660422  0.25143105472126415  0.9061892525592353  1.0000
  F   F21       1.0  0.2521372509739933  0.3427798537291334  0.48123717676457334  1.0000
  F   F22       1.0  0.24786274915084208  0.8427798538446584  0.018762823222208964  1.0000
  F   F23       1.0  0.7478627492756774  0.6572201460395386  0.5187628232089914  1.0000
  F   F24       1.0  0.7521372510988287  0.15722014638639165  0.9812371767513558  1.0000
  F   F25       1.0  0.361932992783053  0.45998732586025  0.46253847620902155  1.0000
  F   F26       1.0  0.13806700734178232  0.9599873259757751  0.037461523777760804  1.0000
  F   F27       1.0  0.6380670074666177  0.5400126743708  0.5374615237645431  1.0000
  F   F28       1.0  0.8619329929078885  0.04001267425527502  0.9625384761958039  1.0000
  F   F29       1.0  0.7221869796968008  0.5597262593490284  0.9804610900199542  1.0000
  F   F30       1.0  0.7778130207563718  0.05972625923350343  0.5195389104475727  1.0000
  F   F31       1.0  0.27781302063153646  0.4402737404196435  0.019538910460790437  1.0000
  F   F32       1.0  0.2221869794932989  0.9402737405351684  0.4804610895259919  1.0000
  F   F33       1.0  0.6500235853997322  0.4632855146057859  0.8965209162234691  1.0000
  F   F34       1.0  0.8499764149747738  0.9632855142589328  0.6034790837368778  1.0000
  F   F35       1.0  0.34997641484993863  0.5367144856252641  0.10347908375009543  1.0000
  F   F36       1.0  0.1500235852748968  0.03671448550973912  0.3965209162366869  1.0000
  F   F37       1.0  0.6484581074001557  0.3461133172997344  0.945181599807394  1.0000
  F   F38       1.0  0.8515418929743505  0.8461133174152594  0.5548184001529529  1.0000
  F   F39       1.0  0.3515418928495151  0.6538866824689376  0.05481840016617061  1.0000
  F   F40       1.0  0.14845810727532033  0.15388668281579065  0.4451815998206117  1.0000
  Br  Br1       1.0  0.7432219268166662  0.15615906771907895  0.16730618109816925  1.0000
  Br  Br2       1.0  0.7567780724827583  0.656159067834604  0.3326938185404899  1.0000
  Br  Br3       1.0  0.2567780734330045  0.8438409320495931  0.8326938188753954  1.0000
  Br  Br4       1.0  0.24322192776691243  0.3438409323964461  0.6673061814330747  1.0000
  I   I1        1.0  0.6313459723838138  0.2442531452216105  0.28498777276645537  1.0000
  I   I2        1.0  0.8686540269942773  0.7442531453371356  0.21501222737938386  1.0000
  I   I3        1.0  0.36865402786585694  0.7557468545470615  0.7150122272071094  1.0000
  I   I4        1.0  0.13134597195844144  0.25574685443153644  0.7849877725929192  1.0000
  I   I5        1.0  0.6272353318547084  0.5205086359097524  0.3620454481174909  1.0000
  I   I6        1.0  0.8727646675233829  0.02050863579422739  0.13795455202834833  1.0000
  I   I7        1.0  0.3727646683949624  0.4794913643212976  0.6379545518560737  1.0000
  I   I8        1.0  0.12723533142933588  0.9794913639744446  0.8620454479439547  1.0000
  I   I9        1.0  0.8185469827680699  0.5694629516703734  0.13869947217836884  1.0000
  I   I10       1.0  0.6814530179069733  0.06946295155484836  0.361300527968732  1.0000
  I   I11       1.0  0.18145301748160084  0.4305370480982986  0.8613005277951958  1.0000
  I   I12       1.0  0.31854698234269746  0.9305370482138235  0.6386994720048326  1.0000
  I   I13       1.0  0.7413232620225095  0.2880921965946406  0.0927126167978776  1.0000
  I   I14       1.0  0.7586767386525336  0.7880921962477875  0.4072873833492233  1.0000
  I   I15       1.0  0.2586767382271612  0.7119078036364095  0.9072873831756869  1.0000
  I   I16       1.0  0.24132326159713707  0.21190780352088445  0.5927126166243413  1.0000
