data_image0
_chemical_formula_structural       H8C26N6F8I2
_chemical_formula_sum              "H8 C26 N6 F8 I2"
_cell_length_a       5.912668508556605
_cell_length_b       8.194222393904408
_cell_length_c       13.1789795865346
_cell_angle_alpha    86.35783780721226
_cell_angle_beta     79.52581827391285
_cell_angle_gamma    84.58918708563917

_space_group_name_H-M_alt    "P 1"
_space_group_IT_number       1

loop_
  _space_group_symop_operation_xyz
  'x, y, z'

loop_
  _atom_site_type_symbol
  _atom_site_label
  _atom_site_symmetry_multiplicity
  _atom_site_fract_x
  _atom_site_fract_y
  _atom_site_fract_z
  _atom_site_occupancy
  H   H1        1.0  0.17387883167392001  0.7102969103208545  0.3207741265136057  1.0000
  H   H2        1.0  0.8261211684894564  0.2897030896967287  0.679225873237799  1.0000
  H   H3        1.0  0.8718873038916204  0.635161896761023  0.46993374164323626  1.0000
  H   H4        1.0  0.128112696271756  0.3648381032565602  0.5300662581081685  1.0000
  H   H5        1.0  0.4913904485755392  0.43831819760904617  0.2638970267658552  1.0000
  H   H6        1.0  0.5086095515878372  0.5616818024085368  0.7361029729855497  1.0000
  H   H7        1.0  0.7890717124514228  0.5138612078143161  0.11275578067683428  1.0000
  H   H8        1.0  0.21092828741212222  0.4861387921463743  0.8872442198470751  1.0000
  C   C1        1.0  0.041218494676700766  0.1292967770448404  0.21581835702192428  1.0000
  C   C2        1.0  0.9587815054866757  0.8707032229727426  0.7841816427294805  1.0000
  C   C3        1.0  0.04058204941256551  0.1677824552629991  0.31764573091912396  1.0000
  C   C4        1.0  0.959417950750811  0.832217544754584  0.6823542688322808  1.0000
  C   C5        1.0  0.8682809890245862  0.12444956483839942  0.39850980586549795  1.0000
  C   C6        1.0  0.13171901113879034  0.8755504351791837  0.6014901938859069  1.0000
  C   C7        1.0  0.6857917513383924  0.035515855391989634  0.38178667121300586  1.0000
  C   C8        1.0  0.31420824852515256  0.9644841445687007  0.6182133293109037  1.0000
  C   C9        1.0  0.6905420739704363  0.9946933074800279  0.2788347692322778  1.0000
  C   C10       1.0  0.30945792619294016  0.005306692537555256  0.721165230519127  1.0000
  C   C11       1.0  0.8622375328767108  0.04103933200971524  0.19833301742874082  1.0000
  C   C12       1.0  0.1377624652945171  0.958960667950807  0.8016669830977978  1.0000
  C   C13       1.0  0.17537395161340127  0.6572855235087025  0.12322922356129505  1.0000
  C   C14       1.0  0.8246260485499752  0.34271447650888065  0.8767707761901098  1.0000
  C   C15       1.0  0.0003567747779292371  0.6161267974457245  0.20771836867786653  1.0000
  C   C16       1.0  0.9996432253854471  0.3838732025718587  0.7922816310735382  1.0000
  C   C17       1.0  0.024502478141543136  0.6508487525686241  0.3086367462182094  1.0000
  C   C18       1.0  0.9754975220218334  0.34915124744895887  0.6913632535331954  1.0000
  C   C19       1.0  0.8575193679085622  0.6091103499695517  0.39170156190774436  1.0000
  C   C20       1.0  0.14248063225481433  0.39088965004803133  0.6082984378436604  1.0000
  C   C21       1.0  0.6647610622670123  0.5326955574384138  0.3752107345533301  1.0000
  C   C22       1.0  0.3352389378963642  0.4673044425791693  0.6247892651980748  1.0000
  C   C23       1.0  0.6410238029509218  0.4986367797385437  0.274719262717654  1.0000
  C   C24       1.0  0.3589761969126231  0.5013632202221467  0.7252807378062556  1.0000
  C   C25       1.0  0.807567485797456  0.5400106868560024  0.1907300154909917  1.0000
  C   C26       1.0  0.19243251406608894  0.45998931310468805  0.8092699850329178  1.0000
  N   N1        1.0  0.5046514633869991  0.9787466819804592  0.45379362560873127  1.0000
  N   N2        1.0  0.4953485367763775  0.02125331803712389  0.5462063741426736  1.0000
  N   N3        1.0  0.3226739321142887  0.6903118582058166  0.055351094711551446  1.0000
  N   N4        1.0  0.6773260677492563  0.3096881417548737  0.944648905812358  1.0000
  N   N5        1.0  0.48529622019010465  0.48613606222369216  0.4549514562362058  1.0000
  N   N6        1.0  0.5147037799732718  0.513863937793891  0.545048543515199  1.0000
  F   F1        1.0  0.2101216981577783  0.2521562185603241  0.33994371102534465  1.0000
  F   F2        1.0  0.7898783000134493  0.7478437814001981  0.6600562895011939  1.0000
  F   F3        1.0  0.8825539704916656  0.16951317743713243  0.4936045901880474  1.0000
  F   F4        1.0  0.11744602937187927  0.830486822523558  0.5063954103358621  1.0000
  F   F5        1.0  0.5258398634714357  0.905620124649653  0.2575934628027154  1.0000
  F   F6        1.0  0.4741601366919408  0.09437987536793012  0.7424065369486894  1.0000
  F   F7        1.0  0.8559168405509924  0.9966172012743495  0.10229698324720386  1.0000
  F   F8        1.0  0.14408315961238427  0.0033827987432335483  0.8977030165042008  1.0000
  I   I1        1.0  0.299749841443904  0.20287698443347205  0.09648006182879296  1.0000
  I   I2        1.0  0.7002501587194726  0.797123015584111  0.9035199379226119  1.0000
