data_image0
_chemical_formula_structural       H20C36N4F8I4
_chemical_formula_sum              "H20 C36 N4 F8 I4"
_cell_length_a       7.697971737952863
_cell_length_b       10.332868142369502
_cell_length_c       11.58149620297391
_cell_angle_alpha    95.97154279648625
_cell_angle_beta     95.71446255235217
_cell_angle_gamma    105.83680358032646

_space_group_name_H-M_alt    "P 1"
_space_group_IT_number       1

loop_
  _space_group_symop_operation_xyz
  'x, y, z'

loop_
  _atom_site_type_symbol
  _atom_site_label
  _atom_site_symmetry_multiplicity
  _atom_site_fract_x
  _atom_site_fract_y
  _atom_site_fract_z
  _atom_site_occupancy
  H   H1        1.0  0.9180132169918899  0.10866977108614413  0.9552586474753672  1.0000
  H   H2        1.0  0.08198678192713961  0.8913302287615564  0.0447413519718579  1.0000
  H   H3        1.0  0.8857046493888788  0.27639359271529346  0.09949227641766793  1.0000
  H   H4        1.0  0.11429535102820715  0.7236064072807213  0.9005077238953043  1.0000
  H   H5        1.0  0.21271084223938105  0.018581560003698858  0.2072315150029535  1.0000
  H   H6        1.0  0.7872891568787557  0.9814184399880975  0.7927684853202284  1.0000
  H   H7        1.0  0.14439108087348482  0.3485834906505445  0.44044553315272517  1.0000
  H   H8        1.0  0.8556089199035918  0.6514165103507406  0.5595544671560309  1.0000
  H   H9        1.0  0.2873401138826251  0.15956864024936995  0.40262245315687567  1.0000
  H   H10       1.0  0.7126598863353535  0.840431359602549  0.5973775462801397  1.0000
  H   H11       1.0  0.535563275773925  0.8885129307289672  0.9143092252744972  1.0000
  H   H12       1.0  0.46443672464316094  0.11148706926704745  0.08569077503847507  1.0000
  H   H13       1.0  0.35171746617241795  0.2003457067004714  0.9514279609781612  1.0000
  H   H14       1.0  0.648282534244668  0.7996542932955434  0.04857203933481113  1.0000
  H   H15       1.0  0.4149490969811713  0.8689253956526424  0.7150651191573283  1.0000
  H   H16       1.0  0.5850509034359148  0.13107460434337254  0.28493488115564397  1.0000
  H   H17       1.0  0.17653936444359175  0.2608301941206452  0.7834873738915421  1.0000
  H   H18       1.0  0.8234606346745449  0.7391698058711511  0.2165126264316397  1.0000
  H   H19       1.0  0.1266911301372698  0.12027411028867774  0.5878187906303365  1.0000
  H   H20       1.0  0.8733088702798163  0.8797258897073371  0.4121812096826358  1.0000
  C   C1        1.0  0.45978737176987716  0.6082410205486527  0.3409625803098794  1.0000
  C   C2        1.0  0.5402126284481015  0.3917589793032662  0.659037419127136  1.0000
  C   C3        1.0  0.32781855583046665  0.6745211847977072  0.3154335980255872  1.0000
  C   C4        1.0  0.6721814445866194  0.3254788151983076  0.6845664022873852  1.0000
  C   C5        1.0  0.5021820917470401  0.5161141358463578  0.2597389614307427  1.0000
  C   C6        1.0  0.49781790847093843  0.4838858640055611  0.7402610380062726  1.0000
  C   C7        1.0  0.23672886687627498  0.6460298480954347  0.2015717909726895  1.0000
  C   C8        1.0  0.7632711322418618  0.3539701518963616  0.7984282093504925  1.0000
  C   C9        1.0  0.401388701686513  0.4872468075948868  0.14879799072112565  1.0000
  C   C10       1.0  0.5986112985314656  0.512753192257032  0.8512020087158897  1.0000
  C   C11       1.0  0.2714045392641694  0.5526191443560629  0.11772650343198482  1.0000
  C   C12       1.0  0.7285954611529165  0.44738085563995195  0.8822734968809874  1.0000
  C   C13       1.0  0.9882359095822834  0.06117191241757826  0.017423765686118774  1.0000
  C   C14       1.0  0.011764090834802662  0.9388280875784366  0.9825762346268535  1.0000
  C   C15       1.0  0.043961152108627374  0.13669224243477993  0.13452873431595042  1.0000
  C   C16       1.0  0.9560388483084586  0.8633077575612348  0.865471265997022  1.0000
  C   C17       1.0  0.9757783030668723  0.24722819511803448  0.16462929461337494  1.0000
  C   C18       1.0  0.02422169735021368  0.7527718048779802  0.8353707056995973  1.0000
  C   C19       1.0  0.15727204130220188  0.1042399249615825  0.22346789791456442  1.0000
  C   C20       1.0  0.842727957815935  0.8957600750302139  0.7765321024086174  1.0000
  C   C21       1.0  0.11913089069897952  0.28745323371710013  0.3545658788542175  1.0000
  C   C22       1.0  0.8808691097181065  0.7125467662789148  0.6454341214587547  1.0000
  C   C23       1.0  0.19753786606089954  0.181534755246197  0.33332851066738856  1.0000
  C   C24       1.0  0.8024621330572373  0.8184652447455995  0.6666714896557934  1.0000
  C   C25       1.0  0.48823009949977614  0.9759561793844783  0.9422515127174961  1.0000
  C   C26       1.0  0.5117699009173098  0.0240438206115363  0.057748487595476114  1.0000
  C   C27       1.0  0.39760898058541666  0.027431862286698642  0.8485643045917285  1.0000
  C   C28       1.0  0.6023910198316694  0.9725681377093162  0.15143569572124388  1.0000
  C   C29       1.0  0.33045677158432923  0.1408831528396135  0.8655113723263386  1.0000
  C   C30       1.0  0.6695432275338075  0.8591168471521827  0.1344886279968434  1.0000
  C   C31       1.0  0.36568174234805134  0.9576786130182193  0.7339973277157618  1.0000
  C   C32       1.0  0.6343182567700855  0.04232138697357702  0.2660026726074201  1.0000
  C   C33       1.0  0.2327947625114479  0.1751638215823043  0.7721010304591646  1.0000
  C   C34       1.0  0.7672052379056381  0.8248361784137104  0.22789896985380761  1.0000
  C   C35       1.0  0.20500841857602486  0.09676315073475257  0.6624715254873634  1.0000
  C   C36       1.0  0.7949915803430045  0.9032368491129479  0.3375284739598615  1.0000
  N   N1        1.0  0.008995878757291026  0.3188977251270092  0.2715677896486778  1.0000
  N   N2        1.0  0.9910041216597949  0.6811022748690055  0.7284322106642945  1.0000
  N   N3        1.0  0.27177474323780937  0.9904410336974685  0.6434882016630438  1.0000
  N   N4        1.0  0.7282252558803275  0.009558966294327887  0.3565117986601381  1.0000
  F   F1        1.0  0.5569339235902862  0.6382961940019956  0.4498398773502695  1.0000
  F   F2        1.0  0.4430660755278507  0.3617038059898008  0.5501601229729124  1.0000
  F   F3        1.0  0.11170191083726388  0.7103859466119217  0.16860289671515247  1.0000
  F   F4        1.0  0.888298088280873  0.2896140533798748  0.8313971036080294  1.0000
  F   F5        1.0  0.4305829350946028  0.39535551663813906  0.0660862612238847  1.0000
  F   F6        1.0  0.5694170643835247  0.6046444843589276  0.933913739095081  1.0000
  F   F7        1.0  0.182594436412325  0.52601175548956  0.007445286435262475  1.0000
  F   F8        1.0  0.8174055627058119  0.4739882445022364  0.9925547138879195  1.0000
  I   I1        1.0  0.2798057862978447  0.8174798570612731  0.44460716833202707  1.0000
  I   I2        1.0  0.7201942141192413  0.18252014293474175  0.5553928319809451  1.0000
  I   I3        1.0  0.728913630500863  0.44007168105088823  0.2902886860994608  1.0000
  I   I4        1.0  0.27108636991622304  0.5599283189451266  0.7097113142135115  1.0000
