data_image0
_chemical_formula_structural       H38C36N10O8
_chemical_formula_sum              "H38 C36 N10 O8"
_cell_length_a       12.560010653524127
_cell_length_b       4.630920846252397
_cell_length_c       15.545804433681816
_cell_angle_alpha    90.0
_cell_angle_beta     109.75270788109604
_cell_angle_gamma    90.0

_space_group_name_H-M_alt    "P 1"
_space_group_IT_number       1

loop_
  _space_group_symop_operation_xyz
  'x, y, z'

loop_
  _atom_site_type_symbol
  _atom_site_label
  _atom_site_symmetry_multiplicity
  _atom_site_fract_x
  _atom_site_fract_y
  _atom_site_fract_z
  _atom_site_occupancy
  H   H1        1.0  0.8819929704102653  0.9945172964308073  0.14406586044523084  1.0000
  H   H2        1.0  0.3819929704777959  0.005482702219051529  0.14406586038466554  1.0000
  H   H3        1.0  0.9645949412896985  0.8200492938835738  0.2496897230358676  1.0000
  H   H4        1.0  0.464594941357229  0.1799507069256828  0.24968972297530226  1.0000
  H   H5        1.0  0.11961975478469904  0.6218758656457158  0.08187371583215232  1.0000
  H   H6        1.0  0.6196197547171685  0.3781241351635408  0.08187371589271761  1.0000
  H   H7        1.0  0.30958088383484456  0.5405430179239061  0.20488951855072557  1.0000
  H   H8        1.0  0.809580883767314  0.4594569828853504  0.20488951861129087  1.0000
  H   H9        1.0  0.3178390452030512  0.15175491297129756  0.3224024635935153  1.0000
  H   H10       1.0  0.8178390451355205  0.848245087837959  0.32240246365408054  1.0000
  H   H11       1.0  0.9277231659935989  0.34803481499889954  0.047732654531526066  1.0000
  H   H12       1.0  0.4277231660611294  0.6519651836509593  0.04773265447096076  1.0000
  H   H13       1.0  0.38715851946486385  0.17554527641254633  0.7940681434058454  1.0000
  H   H14       1.0  0.8871585193973333  0.8244547243967103  0.7940681434664107  1.0000
  H   H15       1.0  0.4137316286411306  0.5257634865364527  0.6838664399375222  1.0000
  H   H16       1.0  0.9137316285736  0.4742365142728039  0.6838664399980874  1.0000
  H   H17       1.0  0.6025413657321187  0.7550676476860307  0.7104350402669792  1.0000
  H   H18       1.0  0.1025413657996493  0.2449323531232259  0.7104350402064139  1.0000
  H   H19       1.0  0.7632069446275533  0.6252165835101812  0.8507498473848302  1.0000
  H   H20       1.0  0.2632069446950839  0.37478341513967783  0.850749847324265  1.0000
  H   H21       1.0  0.4686079049985714  0.8969253584546409  0.930904049114325  1.0000
  H   H22       1.0  0.9686079049310408  0.10307464235461569  0.9309040491748902  1.0000
  H   H23       1.0  0.6112376003566722  0.9378849594276311  0.9980674700251007  1.0000
  H   H24       1.0  0.11123760042420279  0.062115041381625546  0.9980674699645353  1.0000
  H   H25       1.0  0.6622356191061372  0.18482706537570354  0.33987256348262823  1.0000
  H   H26       1.0  0.16223561917366777  0.8151729354335532  0.3398725634220629  1.0000
  H   H27       1.0  0.506169766585866  0.17422503791074864  0.5832101425039448  1.0000
  H   H28       1.0  0.006169766653396635  0.8257749628985079  0.5832101424433795  1.0000
  H   H29       1.0  0.7059422020467582  0.275631016460356  0.6676256405652288  1.0000
  H   H30       1.0  0.205942202111019  0.7243689843489006  0.6676256411470262  1.0000
  H   H31       1.0  0.8585792668190022  0.00625290540723308  0.6313993161294281  1.0000
  H   H32       1.0  0.3585792668865328  0.9937470954020236  0.6313993160688628  1.0000
  H   H33       1.0  0.8040826367536501  0.6378107914304477  0.5065186361541482  1.0000
  H   H34       1.0  0.30408263682118075  0.3621892093788089  0.5065186360935828  1.0000
  H   H35       1.0  0.36711648634888433  0.8654162234803122  0.4764001020706513  1.0000
  H   H36       1.0  0.8671164862846235  0.13458377732894455  0.4764001014888538  1.0000
  H   H37       1.0  0.4074238314446695  0.6340820297924737  0.40336360732333  1.0000
  H   H38       1.0  0.9074238313771389  0.36591797101678286  0.4033636073838953  1.0000
  C   C1        1.0  0.04812844410490293  0.11254220430516829  0.19895393217293725  1.0000
  C   C2        1.0  0.5481284440406421  0.8874577965040883  0.19895393159113983  1.0000
  C   C3        1.0  0.13073283245023937  0.46059161683277633  0.13534789792956015  1.0000
  C   C4        1.0  0.6307328323827087  0.5394083818170826  0.13534789799012545  1.0000
  C   C5        1.0  0.23533274846235766  0.4166126099005339  0.20272427480840913  1.0000
  C   C6        1.0  0.7353327492407743  0.5833873909087227  0.20272427510244745  1.0000
  C   C7        1.0  0.23922039224506034  0.20627930420643079  0.26764312391928125  1.0000
  C   C8        1.0  0.7392203921775298  0.7937206966028258  0.2676431239798465  1.0000
  C   C9        1.0  0.6676870571020369  0.3292267781328656  0.901700750958079  1.0000
  C   C10       1.0  0.1676870571695675  0.6707732205169933  0.9017007508975136  1.0000
  C   C11       1.0  0.5596108172708001  0.19951173873932457  0.8869507364953543  1.0000
  C   C12       1.0  0.059610817338330666  0.8004882599105344  0.8869507364347888  1.0000
  C   C13       1.0  0.46947679060667774  0.27687755039856216  0.8068714603316309  1.0000
  C   C14       1.0  0.9694767905391471  0.7231224482512968  0.8068714603921963  1.0000
  C   C15       1.0  0.48506715476247425  0.47248635047837007  0.7449457684828643  1.0000
  C   C16       1.0  0.9850671546982135  0.5275136481714888  0.7449457679010669  1.0000
  C   C17       1.0  0.5910558292465296  0.6011030035749144  0.7594135840155435  1.0000
  C   C18       1.0  0.09105582931406014  0.3988969950749445  0.7594135839549782  1.0000
  C   C19       1.0  0.6801789982209923  0.5284736516238471  0.8371698559216484  1.0000
  C   C20       1.0  0.18017899828852285  0.4715263491854096  0.8371698558610831  1.0000
  C   C21       1.0  0.7657660166369256  0.25855994514978164  0.9822626807190721  1.0000
  C   C22       1.0  0.26576601670445604  0.741440055659475  0.9822626806585069  1.0000
  C   C23       1.0  0.6255547397144713  0.6973500038579565  0.47377293455756475  1.0000
  C   C24       1.0  0.1255547397820018  0.3026499969513001  0.4737729344969994  1.0000
  C   C25       1.0  0.5386187158966053  0.8457759201757103  0.4961700176446534  1.0000
  C   C26       1.0  0.0386187159641359  0.15422408063354628  0.4961700175840882  1.0000
  C   C27       1.0  0.5716456043212514  0.05553888493001078  0.5666255992611074  1.0000
  C   C28       1.0  0.07164560438878205  0.9444611158792457  0.5666255992005422  1.0000
  C   C29       1.0  0.6843985079266056  0.11267056970370043  0.6138184788314154  1.0000
  C   C30       1.0  0.18439850799413623  0.8873294311055563  0.61381847877085  1.0000
  C   C31       1.0  0.7699508941056439  0.9632788829914869  0.5930408270320924  1.0000
  C   C32       1.0  0.26995089416990475  0.0367211178177697  0.59304082761389  1.0000
  C   C33       1.0  0.7395594876326442  0.7587710320817884  0.5237782146912543  1.0000
  C   C34       1.0  0.23955948769690497  0.24122896872746824  0.5237782152730519  1.0000
  C   C35       1.0  0.5979492203054991  0.4784115111345288  0.4010938459581384  1.0000
  C   C36       1.0  0.09794922037302979  0.5215884896747278  0.4010938458975731  1.0000
  N   N1        1.0  0.1477956943011037  0.056900832199116895  0.26679725112461466  1.0000
  N   N2        1.0  0.6477956942335731  0.9430991686101396  0.26679725118518  1.0000
  N   N3        1.0  0.9563297430669696  0.9661958708754262  0.1980273816229524  1.0000
  N   N4        1.0  0.45632974313123037  0.03380412993383043  0.19802738220474986  1.0000
  N   N5        1.0  0.038427940404156015  0.31082108025336563  0.13211051675912205  1.0000
  N   N6        1.0  0.5384279403366253  0.689178920555891  0.13211051681968733  1.0000
  N   N7        1.0  0.5415600048347252  0.011657459022148379  0.9476291677580444  1.0000
  N   N8        1.0  0.04156000490225578  0.9883425396277106  0.9476291676974791  1.0000
  N   N9        1.0  0.4272892560882451  0.7908116466649713  0.4520882066600799  1.0000
  N   N10       1.0  0.9272892560207144  0.20918835414428535  0.4520882067206452  1.0000
  O   O1        1.0  0.760971321063572  0.09103693066599709  0.0444229123294689  1.0000
  O   O2        1.0  0.26097132113110266  0.9089630701432596  0.04442291226890361  1.0000
  O   O3        1.0  0.8619523857143175  0.38696039502600743  0.9852756263581685  1.0000
  O   O4        1.0  0.36195238578184824  0.6130396057832492  0.9852756262976032  1.0000
  O   O5        1.0  0.49867530171382374  0.42254644917620143  0.3505467230032241  1.0000
  O   O6        1.0  0.9986753016462933  0.5774535494736575  0.35054672306378937  1.0000
  O   O7        1.0  0.6866145653740465  0.34388443311198946  0.39159329676912524  1.0000
  O   O8        1.0  0.18661456544157715  0.6561155676972672  0.3915932967085599  1.0000
