data_image0
_chemical_formula_structural       H48C44N16O8
_chemical_formula_sum              "H48 C44 N16 O8"
_cell_length_a       11.157031959684412
_cell_length_b       5.535479780251627
_cell_length_c       17.335316967097466
_cell_angle_alpha    90.0
_cell_angle_beta     91.0568206814492
_cell_angle_gamma    90.0

_space_group_name_H-M_alt    "P 1"
_space_group_IT_number       1

loop_
  _space_group_symop_operation_xyz
  'x, y, z'

loop_
  _atom_site_type_symbol
  _atom_site_label
  _atom_site_symmetry_multiplicity
  _atom_site_fract_x
  _atom_site_fract_y
  _atom_site_fract_z
  _atom_site_occupancy
  H   H1        1.0  0.09191822442072992  0.8754372271918435  0.10341999400738565  1.0000
  H   H2        1.0  0.9080817753331405  0.3754372272145721  0.39658000614991024  1.0000
  H   H3        1.0  0.9080817755342193  0.12456277276269927  0.8965800060723106  1.0000
  H   H4        1.0  0.09191822462180863  0.6245627727399707  0.6034199939297861  1.0000
  H   H5        1.0  0.0005958490783519826  0.6989686736465904  0.03780427646986013  1.0000
  H   H6        1.0  0.9994041506755185  0.19896867366931903  0.4621957236874357  1.0000
  H   H7        1.0  0.9994041508765972  0.3010313263079523  0.9621957236098363  1.0000
  H   H8        1.0  0.0005958492794306959  0.8010313262852237  0.5378042763922606  1.0000
  H   H9        1.0  0.23829340476693212  0.10460720352837742  0.9522123502366888  1.0000
  H   H10       1.0  0.761706594492669  0.6046072035056488  0.5477876497507849  1.0000
  H   H11       1.0  0.7617065951880171  0.8953927964261653  0.04778764984300745  1.0000
  H   H12       1.0  0.23829340546228026  0.3953927964488939  0.45221235032891144  1.0000
  H   H13       1.0  0.4392962640490676  0.17370972673958351  0.01736011493664676  1.0000
  H   H14       1.0  0.5607037357048029  0.6737097267168549  0.48263988522064905  1.0000
  H   H15       1.0  0.5607037359058816  0.8262902732149593  0.9826398851430497  1.0000
  H   H16       1.0  0.43929626425014634  0.3262902732376879  0.5173601148590472  1.0000
  H   H17       1.0  0.4557299733384711  0.5306911571568351  0.10917737372640877  1.0000
  H   H18       1.0  0.5442700264153993  0.030691157179563805  0.3908226264308871  1.0000
  H   H19       1.0  0.5442700266164782  0.46930884279770757  0.8908226263532876  1.0000
  H   H20       1.0  0.45572997353954986  0.9693088427749789  0.6091773736488092  1.0000
  H   H21       1.0  0.2975053326581257  0.8401039141341795  0.15334981019809776  1.0000
  H   H22       1.0  0.7024946671019329  0.3401039141569081  0.34665018938242825  1.0000
  H   H23       1.0  0.7024946673030116  0.1598960858203633  0.8466501893048288  1.0000
  H   H24       1.0  0.2975053328530164  0.6598960857976347  0.653349810697268  1.0000
  H   H25       1.0  0.07523430549623368  0.4344640980498129  0.2653867847911805  1.0000
  H   H26       1.0  0.9247656942576368  0.9344640980270843  0.23461321536611543  1.0000
  H   H27       1.0  0.9247656944587156  0.5655359019047299  0.7346132152885159  1.0000
  H   H28       1.0  0.0752343056973124  0.06553590192745846  0.7653867847135809  1.0000
  H   H29       1.0  0.012179431393582497  0.7708647126168401  0.34256463935970644  1.0000
  H   H30       1.0  0.9878205683602881  0.2708647126395687  0.15743536079758944  1.0000
  H   H31       1.0  0.9878205685613667  0.2291352873377027  0.6574353607199899  1.0000
  H   H32       1.0  0.01217943159466121  0.7291352891215022  0.8425646392821069  1.0000
  H   H33       1.0  0.11195445847974857  0.9396461438729271  0.3988341781762013  1.0000
  H   H34       1.0  0.8880455412803099  0.43964614389565576  0.10116582140432467  1.0000
  H   H35       1.0  0.8880455414813887  0.06035385608161562  0.6011658213267251  1.0000
  H   H36       1.0  0.11195445867463931  0.560353856058887  0.8988341786753716  1.0000
  H   H37       1.0  0.3282485470019374  0.8599031157121533  0.39910682858467866  1.0000
  H   H38       1.0  0.6717514527519332  0.3599031157348819  0.10089317157261725  1.0000
  H   H39       1.0  0.6717514529530118  0.1400968842423895  0.6008931714950178  1.0000
  H   H40       1.0  0.3282485472030161  0.6400968842196609  0.8991068285070791  1.0000
  H   H41       1.0  0.49159762415137925  0.5858174916597008  0.35862332914088174  1.0000
  H   H42       1.0  0.5084023756024912  0.08581749168242937  0.14137667101641413  1.0000
  H   H43       1.0  0.50840237580357  0.414182508294842  0.6413766709388146  1.0000
  H   H44       1.0  0.491597624352458  0.9141825082721134  0.8586233290632822  1.0000
  H   H45       1.0  0.4498655382938334  0.2396404273270961  0.2721314502479968  1.0000
  H   H46       1.0  0.5501344614600371  0.7396404273043674  0.2278685499092991  1.0000
  H   H47       1.0  0.5501344616611158  0.7603595726274467  0.7278685498316997  1.0000
  H   H48       1.0  0.4498655384949121  0.2603595726501753  0.7721314501703972  1.0000
  C   C1        1.0  0.1741761815224314  0.5882118116691937  0.0529121721917172  1.0000
  C   C2        1.0  0.825823819134054  0.0882118116919223  0.44708782740343184  1.0000
  C   C3        1.0  0.8258238193351326  0.41178818828534913  0.9470878273258322  1.0000
  C   C4        1.0  0.17417618082089528  0.9117881882626205  0.5529121726762645  1.0000
  C   C5        1.0  0.2523946616238568  0.25450237484851945  0.9922151407052411  1.0000
  C   C6        1.0  0.7476053376357444  0.7545023748257907  0.5077848592822327  1.0000
  C   C7        1.0  0.7476053383372805  0.7454976251060234  0.007784858797685346  1.0000
  C   C8        1.0  0.25239466231920493  0.2454976251287519  0.4922151407974636  1.0000
  C   C9        1.0  0.3638909391875047  0.29230940121444127  0.027710877929731925  1.0000
  C   C10       1.0  0.6361090614627927  0.7923094011917126  0.47228912224218694  1.0000
  C   C11       1.0  0.6361090607674446  0.7076905987401015  0.9722891221499645  1.0000
  C   C12       1.0  0.36389093849215653  0.20769059876283014  0.5277108778375093  1.0000
  C   C13       1.0  0.37246193484738394  0.48829123351564885  0.07780652923347924  1.0000
  C   C14       1.0  0.6275380649064867  0.9882912334929201  0.4221934709238166  1.0000
  C   C15       1.0  0.6275380651075653  0.5117087682454221  0.9221934708462171  1.0000
  C   C16       1.0  0.3724619350484626  0.011708766461622548  0.5778065291558796  1.0000
  C   C17       1.0  0.2592538646436899  0.3167017313032817  0.26376168188291454  1.0000
  C   C18       1.0  0.7407461351101807  0.816701731280553  0.23623831827438138  1.0000
  C   C19       1.0  0.7407461353112593  0.6832982686512611  0.7362383181967818  1.0000
  C   C20       1.0  0.2592538648447686  0.18329826867398966  0.763761681805315  1.0000
  C   C21       1.0  0.16637454965285423  0.46875601808847145  0.28630203303031126  1.0000
  C   C22       1.0  0.8336254501010163  0.9687560180657429  0.2136979671269846  1.0000
  C   C23       1.0  0.8336254503020951  0.5312439818660712  0.713697967049385  1.0000
  C   C24       1.0  0.1663745498539329  0.031243981888799916  0.7863020329527116  1.0000
  C   C25       1.0  0.23133405186794082  0.11887384402478804  0.20838500872844962  1.0000
  C   C26       1.0  0.7686659487885444  0.6188738440020595  0.2916149908666994  1.0000
  C   C27       1.0  0.7686659480931963  0.8811261559297547  0.7916149907744768  1.0000
  C   C28       1.0  0.23133405206283156  0.3811261559524833  0.7083850092276199  1.0000
  C   C29       1.0  0.1888835104474003  0.6673443344837  0.3355452173090528  1.0000
  C   C30       1.0  0.8111164893064702  0.16734433450642855  0.16445478284824308  1.0000
  C   C31       1.0  0.8111164895075489  0.33265566547084285  0.6644547827706436  1.0000
  C   C32       1.0  0.18888351064847902  0.8326556654481142  0.8355452172314533  1.0000
  C   C33       1.0  0.3082423657819662  0.7053652483619967  0.36197676862198896  1.0000
  C   C34       1.0  0.6917576339719044  0.20536524838472528  0.13802323153530688  1.0000
  C   C35       1.0  0.6917576341729831  0.2946347515925461  0.6380232314577073  1.0000
  C   C36       1.0  0.3082423659830449  0.7946347515698176  0.8619767685443894  1.0000
  C   C37       1.0  0.39981281033099275  0.5516256243756338  0.3394323916363077  1.0000
  C   C38       1.0  0.6001871903193046  0.051625624398362366  0.16056760853561114  1.0000
  C   C39       1.0  0.6001871896239563  0.448374375578909  0.6605676084433886  1.0000
  C   C40       1.0  0.3998128105320715  0.9483743755561803  0.8394323915587082  1.0000
  C   C41       1.0  0.377300176702089  0.35600737754125056  0.2905447490682542  1.0000
  C   C42       1.0  0.6226998230517815  0.8560073775185219  0.20945525108904167  1.0000
  C   C43       1.0  0.6226998232528602  0.6439926224132921  0.7094552510114421  1.0000
  C   C44       1.0  0.37730017690316764  0.14399262243602082  0.7905447489906546  1.0000
  N   N1        1.0  0.28007104920271614  0.63557910419105  0.09073010118659249  1.0000
  N   N2        1.0  0.7199289505511545  0.13557910421377867  0.40926989897070337  1.0000
  N   N3        1.0  0.7199289507522331  0.3644208957634927  0.9092698988931038  1.0000
  N   N4        1.0  0.28007104940379485  0.8644208957407641  0.5907301011089929  1.0000
  N   N5        1.0  0.08202478697682934  0.7371153110443701  0.06397147782606392  1.0000
  N   N6        1.0  0.917975213673468  0.23711531106709874  0.43602852234585493  1.0000
  N   N7        1.0  0.9179752129781199  0.26288468891017264  0.9360285222536324  1.0000
  N   N8        1.0  0.0820247862814812  0.762884688887444  0.5639714777338414  1.0000
  N   N9        1.0  0.15831680476450274  0.3983409528233822  0.00368387144886909  1.0000
  N   N10       1.0  0.8416831958857947  0.8983409528006536  0.49631612872304975  1.0000
  N   N11       1.0  0.8416831951904465  0.6016590471311605  0.9963161286308273  1.0000
  N   N12       1.0  0.15831680406915463  0.10165904715388913  0.5036838713566466  1.0000
  N   N13       1.0  0.09844271564300018  0.821522366719454  0.3546309341272813  1.0000
  N   N14       1.0  0.9015572850134852  0.3215223667421826  0.14536906546786768  1.0000
  N   N15       1.0  0.901557284318137  0.1784776332350888  0.6453690653756451  1.0000
  N   N16       1.0  0.09844271494146405  0.6784776332123602  0.8546309346118286  1.0000
  O   O1        1.0  0.13150743202242757  0.09815023477067109  0.17545998578925873  1.0000
  O   O2        1.0  0.868492567731443  0.5981502347479425  0.32454001436803714  1.0000
  O   O3        1.0  0.8684925679325218  0.9018497669903998  0.8245400142904377  1.0000
  O   O4        1.0  0.1315074322235063  0.40184976520660026  0.6754599857116592  1.0000
  O   O5        1.0  0.32125498489785237  0.970046430149892  0.19526218998227898  1.0000
  O   O6        1.0  0.6787450148622062  0.47004643017262066  0.30473780959824703  1.0000
  O   O7        1.0  0.6787450150632848  0.029953569804650765  0.8047378095206474  1.0000
  O   O8        1.0  0.3212549850927431  0.5299535697819222  0.6952621904814493  1.0000
