data_image0
_chemical_formula_structural       H68C68O16S52
_chemical_formula_sum              "H68 C68 O16 S52"
_cell_length_a       18.507392427688504
_cell_length_b       10.951595695907336
_cell_length_c       12.646621166759633
_cell_angle_alpha    90.0
_cell_angle_beta     108.1188662812525
_cell_angle_gamma    90.0

_space_group_name_H-M_alt    "P 1"
_space_group_IT_number       1

loop_
  _space_group_symop_operation_xyz
  'x, y, z'

loop_
  _atom_site_type_symbol
  _atom_site_label
  _atom_site_symmetry_multiplicity
  _atom_site_fract_x
  _atom_site_fract_y
  _atom_site_fract_z
  _atom_site_occupancy
  H   H1        1.0  0.817967478436249  0.6019885113603798  0.0769498671111592  1.0000
  H   H2        1.0  0.18203252119851232  0.10198851208663634  0.423050132726659  1.0000
  H   H3        1.0  0.18203252133446296  0.398011488100216  0.9230501327741573  1.0000
  H   H4        1.0  0.8179674785721998  0.8980114882870683  0.5769498671586574  1.0000
  H   H5        1.0  0.7511439996794435  0.5925072546665444  0.1528546412623261  1.0000
  H   H6        1.0  0.24885600052381204  0.09250725447969205  0.34714535884105696  1.0000
  H   H7        1.0  0.24885600009126857  0.40749274479405134  0.8471453586229902  1.0000
  H   H8        1.0  0.751143999815394  0.9074927449809038  0.6528546413098243  1.0000
  H   H9        1.0  0.8055890809436981  0.387740027837851  0.12432314950789677  1.0000
  H   H10       1.0  0.19441091869106328  0.8877400280247034  0.37567685032992143  1.0000
  H   H11       1.0  0.19441091882701392  0.6122599716227447  0.8756768503774196  1.0000
  H   H12       1.0  0.8055890810796487  0.11225997234900137  0.6243231495553949  1.0000
  H   H13       1.0  0.7711686791254985  0.40991825069634896  0.9777971033417404  1.0000
  H   H14       1.0  0.22883132078116422  0.9099182508832012  0.5222028965910742  1.0000
  H   H15       1.0  0.22883132064521355  0.5900817496773558  0.02220289654357605  1.0000
  H   H16       1.0  0.7711686789895478  0.0900817494905034  0.47779710329424213  1.0000
  H   H17       1.0  0.07497516146634672  0.6396877810799778  0.4789760286587072  1.0000
  H   H18       1.0  0.9250248387369087  0.13968778089312547  0.021023971444675823  1.0000
  H   H19       1.0  0.9250248388728595  0.3603122192937269  0.521023971492174  1.0000
  H   H20       1.0  0.07497516103380322  0.8603122194805793  0.9789760284406405  1.0000
  H   H21       1.0  0.10979333339242289  0.5160346772216907  0.416690434560743  1.0000
  H   H22       1.0  0.8902066668108326  0.01603467703483836  0.08330956554263999  1.0000
  H   H23       1.0  0.8902066669467832  0.483965323152014  0.5833095655901382  1.0000
  H   H24       1.0  0.10979333352837355  0.9839653233388663  0.9166904346082414  1.0000
  H   H25       1.0  0.057674874675134304  0.43541370156515197  0.5574242149674278  1.0000
  H   H26       1.0  0.9423251252315284  0.9354137017520044  0.9425757849653869  1.0000
  H   H27       1.0  0.9423251256640719  0.5645862978954438  0.4425757851834534  1.0000
  H   H28       1.0  0.05767487453918365  0.06458629862170039  0.05742421491992958  1.0000
  H   H29       1.0  0.11635255286144827  0.5328381262449934  0.6626697004391082  1.0000
  H   H30       1.0  0.8836474476137084  0.032838126971249985  0.8373302997592712  1.0000
  H   H31       1.0  0.8836474474777579  0.46716187321560243  0.337330299711773  1.0000
  H   H32       1.0  0.11635255272549763  0.9671618734024547  0.16266970039161005  1.0000
  H   H33       1.0  0.1542125190802609  0.6012999450354909  0.28427444694515297  1.0000
  H   H34       1.0  0.8457874805545004  0.1012999448486385  0.21572555289266518  1.0000
  H   H35       1.0  0.8457874806904512  0.3987000553382139  0.7157255529401634  1.0000
  H   H36       1.0  0.15421251921621154  0.8987000555250663  0.7842744469926511  1.0000
  H   H37       1.0  0.14044954968231027  0.6089667711612378  0.13956524244438337  1.0000
  H   H38       1.0  0.8595504499524511  0.10896677097438544  0.3604347573934348  1.0000
  H   H39       1.0  0.8595504500884017  0.39103322921246697  0.8604347574409329  1.0000
  H   H40       1.0  0.14044954981826094  0.8910332293993193  0.6395652424918815  1.0000
  H   H41       1.0  0.20691891209864433  0.4078694926319525  0.14503599576734527  1.0000
  H   H42       1.0  0.7930810881046112  0.9078694928188048  0.3549640043360378  1.0000
  H   H43       1.0  0.7930810882405618  0.5921305077417522  0.8549640043835358  1.0000
  H   H44       1.0  0.20691891223459496  0.09213050755489988  0.6450359958148434  1.0000
  H   H45       1.0  0.12555547806728887  0.3951713677320377  0.19140028442229023  1.0000
  H   H46       1.0  0.8744445215674724  0.8951713679188901  0.30859971541552805  1.0000
  H   H47       1.0  0.8744445217034231  0.604828631728558  0.8085997154630262  1.0000
  H   H48       1.0  0.1255554782032395  0.10482863154170569  0.6914002844697885  1.0000
  H   H49       1.0  0.05032298449662931  0.9551030215541024  0.42441574290524625  1.0000
  H   H50       1.0  0.949677015138132  0.45510302136725006  0.07558425693257194  1.0000
  H   H51       1.0  0.9496770152740828  0.04489697881960235  0.5755842569800701  1.0000
  H   H52       1.0  0.050322984632579955  0.5448969790064547  0.9244157429527443  1.0000
  H   H53       1.0  0.062463471595259355  0.21206875641582767  0.4675116876785273  1.0000
  H   H54       1.0  0.9375365286079961  0.71206875660268  0.03248831242485577  1.0000
  H   H55       1.0  0.9375365281754526  0.7879312439578772  0.532488312206789  1.0000
  H   H56       1.0  0.06246347173121001  0.28793124377102464  0.9675116877260256  1.0000
  H   H57       1.0  0.9774115538636395  0.12640463896209495  0.4232914691244048  1.0000
  H   H58       1.0  0.022588446339615945  0.6264046391489474  0.07670853097897824  1.0000
  H   H59       1.0  0.02258844590707246  0.8735953604985008  0.5767085307609116  1.0000
  H   H60       1.0  0.9774115539995903  0.3735953612247574  0.9232914691719031  1.0000
  H   H61       1.0  0.9983019097070025  0.08659232465588491  0.238907593027445  1.0000
  H   H62       1.0  0.0016980899277588407  0.5865923248427373  0.2610924068103731  1.0000
  H   H63       1.0  0.001698090063709492  0.9134076757178199  0.7610924068578713  1.0000
  H   H64       1.0  0.9983019098429533  0.4134076755309674  0.7389075930749434  1.0000
  H   H65       1.0  0.08647357609894932  0.16639556742228906  0.2847064914651569  1.0000
  H   H66       1.0  0.913526423535812  0.6663955666960325  0.21529350837266129  1.0000
  H   H67       1.0  0.9135264236717627  0.8336044329514156  0.7152935084201594  1.0000
  H   H68       1.0  0.08647357623489997  0.3336044327645633  0.7847064915126551  1.0000
  C   C1        1.0  0.7617918135764998  0.5681383446546697  0.07513140544725457  1.0000
  C   C2        1.0  0.23820818605826144  0.06813834446781734  0.42486859439056357  1.0000
  C   C3        1.0  0.23820818619421213  0.431861655719035  0.9248685944380619  1.0000
  C   C4        1.0  0.7617918137124505  0.9318616559058873  0.5751314054947527  1.0000
  C   C5        1.0  0.7609368885177847  0.43198307912042083  0.05642416639197196  1.0000
  C   C6        1.0  0.2390631116854707  0.9319830793072733  0.44357583371141107  1.0000
  C   C7        1.0  0.23906311182142137  0.5680169203401749  0.9435758337589093  1.0000
  C   C8        1.0  0.7609368880852412  0.06801692106643148  0.5564241661739053  1.0000
  C   C9        1.0  0.6176720420424597  0.5611561813130687  0.921602058691828  1.0000
  C   C10       1.0  0.3823279578642029  0.061156181126216305  0.5783979412409865  1.0000
  C   C11       1.0  0.3823279582967464  0.438843819060636  0.07839794145905321  1.0000
  C   C12       1.0  0.6176720419065092  0.9388438192474884  0.42160205864432987  1.0000
  C   C13       1.0  0.6085098317711997  0.4459233709499533  0.9574163931492199  1.0000
  C   C14       1.0  0.3914901681354631  0.9459233711368057  0.5425836067835946  1.0000
  C   C15       1.0  0.39149016799951236  0.5540766294237514  0.042583606736096485  1.0000
  C   C16       1.0  0.6085098322037431  0.05407662923689901  0.45741639336728657  1.0000
  C   C17       1.0  0.47983945412629847  0.49925974002521856  0.8109112910883071  1.0000
  C   C18       1.0  0.5201605457803643  0.999259740212071  0.6890887088445076  1.0000
  C   C19       1.0  0.5201605456444136  0.5007402594353771  0.18908870879700931  1.0000
  C   C20       1.0  0.4798394545588419  0.0007402592485248183  0.31091129130637374  1.0000
  C   C21       1.0  0.4057474901573828  0.49809071677459  0.7427650130696035  1.0000
  C   C22       1.0  0.5942525097492799  0.9980907169614424  0.7572349868632111  1.0000
  C   C23       1.0  0.5942525096133291  0.5019092826860058  0.25723498681571283  1.0000
  C   C24       1.0  0.4057474905899263  0.001909283412262384  0.2427650132876702  1.0000
  C   C25       1.0  0.2733844389958736  0.558316806954899  0.6100275790925371  1.0000
  C   C26       1.0  0.726615560910789  0.05831680676804669  0.8899724208402773  1.0000
  C   C27       1.0  0.7266155613433325  0.44168319341880563  0.38997242105834407  1.0000
  C   C28       1.0  0.2733844388599229  0.941683192692549  0.11002757904503896  1.0000
  C   C29       1.0  0.26467614951144447  0.44276775865749857  0.6461428677868344  1.0000
  C   C30       1.0  0.7353238503952182  0.942767757931242  0.8538571321459802  1.0000
  C   C31       1.0  0.7353238508277616  0.5572322417162062  0.35385713236404687  1.0000
  C   C32       1.0  0.2646761493754938  0.05723224152935378  0.14614286773933619  1.0000
  C   C33       1.0  0.11836692359698636  0.5673465541027923  0.49379171323426657  1.0000
  C   C34       1.0  0.8816330766062691  0.06734655482904896  0.006208286869116512  1.0000
  C   C35       1.0  0.8816330761737255  0.4326534453578034  0.5062082866510498  1.0000
  C   C36       1.0  0.118366923732937  0.9326534455446557  0.9937917132817647  1.0000
  C   C37       1.0  0.11247964398560203  0.48328409000506833  0.5857410080599574  1.0000
  C   C38       1.0  0.8875203559210606  0.9832840901919208  0.9142589918728571  1.0000
  C   C39       1.0  0.8875203557851099  0.5167159103686364  0.41425899182535886  1.0000
  C   C40       1.0  0.11247964384965138  0.016715910181784067  0.0857410080124593  1.0000
  C   C41       1.0  0.17739783462141898  0.5721922032185492  0.21869964678674353  1.0000
  C   C42       1.0  0.8226021650133424  0.07219220394480581  0.28130035305107465  1.0000
  C   C43       1.0  0.8226021651492931  0.42780779624204657  0.7813003530985729  1.0000
  C   C44       1.0  0.17739783475736964  0.9278077964288989  0.7186996468342417  1.0000
  C   C45       1.0  0.18268929979930598  0.43523253435855563  0.21023997382380458  1.0000
  C   C46       1.0  0.8173107004039496  0.935232534545408  0.2897600262795785  1.0000
  C   C47       1.0  0.8173107005399002  0.5647674651020402  0.7897600263270766  1.0000
  C   C48       1.0  0.18268929936676248  0.06476746582829673  0.710239973605738  1.0000
  C   C49       1.0  0.3312613223482489  0.5590563676750804  0.3305477548906016  1.0000
  C   C50       1.0  0.6687386772865124  0.05905636840133696  0.16945224494721656  1.0000
  C   C51       1.0  0.6687386774224631  0.4409436317855154  0.6694522449947148  1.0000
  C   C52       1.0  0.3312613224841996  0.9409436319723679  0.8305477549380997  1.0000
  C   C53       1.0  0.32074582917643796  0.4466272108481775  0.3715299210690825  1.0000
  C   C54       1.0  0.6792541704583235  0.94662721103503  0.12847007876873573  1.0000
  C   C55       1.0  0.6792541705942741  0.5533727895255272  0.628470078816234  1.0000
  C   C56       1.0  0.32074582931238854  0.05337278933867481  0.8715299211165807  1.0000
  C   C57       1.0  0.4628398093793124  0.499218625468719  0.4657844507303409  1.0000
  C   C58       1.0  0.537160190823943  0.9992186256555714  0.034215549373042095  1.0000
  C   C59       1.0  0.5371601903913995  0.5007813749049858  0.5342155491549754  1.0000
  C   C60       1.0  0.4628398095152631  0.0007813747181333496  0.9657844507778391  1.0000
  C   C61       1.0  0.03465435338906446  0.1348542167742654  0.4152785290861777  1.0000
  C   C62       1.0  0.9653456462456969  0.6348542160480088  0.08472147075164044  1.0000
  C   C63       1.0  0.9653456463816477  0.8651457835994394  0.5847214707991387  1.0000
  C   C64       1.0  0.03465435352501511  0.36514578341258697  0.9152785291336759  1.0000
  C   C65       1.0  0.029520028754618507  0.15930515592828015  0.29423001347434546  1.0000
  C   C66       1.0  0.9704799708801428  0.6593051552020236  0.20576998636347268  1.0000
  C   C67       1.0  0.9704799710160936  0.8406948444454246  0.705769986410971  1.0000
  C   C68       1.0  0.0295200288856531  0.3406948442585722  0.7942300143103018  1.0000
  O   O1        1.0  0.07922005623121846  0.029232731821869546  0.4584816745578623  1.0000
  O   O2        1.0  0.920779943972037  0.5292327320087219  0.04151832554552072  1.0000
  O   O3        1.0  0.9207799441079876  0.9707672685518353  0.5415183255930188  1.0000
  O   O4        1.0  0.0792200563671691  0.47076726836498284  0.9584816746053606  1.0000
  O   O5        1.0  0.9930861594269619  0.316566716510143  0.13182284600068575  1.0000
  O   O6        1.0  0.00691384077629375  0.8165667166969953  0.36817715410269725  1.0000
  O   O7        1.0  0.006913840912244399  0.6834332838635617  0.8681771541501955  1.0000
  O   O8        1.0  0.9930861589944182  0.18343328367670939  0.6318228457826189  1.0000
  O   O9        1.0  0.027437766480167814  0.3944705949667623  0.323402013453429  1.0000
  O   O10       1.0  0.9725622337230876  0.8944705951536146  0.176597986649954  1.0000
  O   O11       1.0  0.9725622338590382  0.6055294054069424  0.6765979866974523  1.0000
  O   O12       1.0  0.02743776661611846  0.10552940522009009  0.8234020135009271  1.0000
  O   O13       1.0  0.9043288413605485  0.293581267906149  0.2401361014437647  1.0000
  O   O14       1.0  0.09567115884270708  0.7935812680930013  0.25986389865961834  1.0000
  O   O15       1.0  0.09567115841016359  0.7064187324675557  0.7598638984415517  1.0000
  O   O16       1.0  0.904328841496499  0.20641873228070337  0.740136101491263  1.0000
  S   S1        1.0  0.6973244774670958  0.6549038248992611  0.9631995047172651  1.0000
  S   S2        1.0  0.30267552243465085  0.1549038247124087  0.5368004960040076  1.0000
  S   S3        1.0  0.3026755228721104  0.34509617547444366  0.036800495433616166  1.0000
  S   S4        1.0  0.697324477331145  0.8450961747481871  0.4631995046697669  1.0000
  S   S5        1.0  0.6736753824472704  0.35745795486797916  0.056362027949895956  1.0000
  S   S6        1.0  0.32632461775598504  0.8574579550548315  0.4436379721534871  1.0000
  S   S7        1.0  0.3263246178919357  0.6425420445926167  0.9436379722009853  1.0000
  S   S8        1.0  0.673675382014727  0.14254204440576423  0.5563620277318292  1.0000
  S   S9        1.0  0.5406086582320851  0.6225102906736892  0.8170110730229333  1.0000
  S   S10       1.0  0.45939134167457757  0.12251029048683686  0.6829889269098812  1.0000
  S   S11       1.0  0.45939134210712096  0.3774897097000155  0.1829889271279479  1.0000
  S   S12       1.0  0.5406086580961345  0.8774897089737589  0.3170110729754351  1.0000
  S   S13       1.0  0.5209027023680616  0.37566664203440936  0.8942505804140157  1.0000
  S   S14       1.0  0.4790972975386011  0.8756666413081529  0.6057494195187989  1.0000
  S   S15       1.0  0.4790972974026505  0.6243333583392954  0.10574941947130058  1.0000
  S   S16       1.0  0.5209027022321109  0.12433335815244298  0.39425058036651756  1.0000
  S   S17       1.0  0.3649435704348899  0.6207118112057738  0.6577527108129495  1.0000
  S   S18       1.0  0.6350564294717728  0.12071181101892146  0.8422472891198651  1.0000
  S   S19       1.0  0.6350564293358221  0.3792881891679309  0.34224728907236684  1.0000
  S   S20       1.0  0.36494357029893926  0.8792881893547833  0.15775271076545128  1.0000
  S   S21       1.0  0.3462507831348538  0.3738579339200839  0.7359855397684534  1.0000
  S   S22       1.0  0.6537492167718089  0.8738579341069362  0.7640144601643613  1.0000
  S   S23       1.0  0.6537492166358582  0.6261420664536209  0.264014460116863  1.0000
  S   S24       1.0  0.3462507829989031  0.1261420662667685  0.23598553972095512  1.0000
  S   S25       1.0  0.20590231868349052  0.6542954386708971  0.5241746771125528  1.0000
  S   S26       1.0  0.7940976812231721  0.15429543848404476  0.9758253228202618  1.0000
  S   S27       1.0  0.7940976810872215  0.3457045617028076  0.4758253227727635  1.0000
  S   S28       1.0  0.205902319116034  0.845704560976551  0.024174677330619468  1.0000
  S   S29       1.0  0.18090296059471897  0.35905800480467914  0.6148586437604474  1.0000
  S   S30       1.0  0.8190970393119437  0.8590580049915315  0.8851413561723671  1.0000
  S   S31       1.0  0.819097039175993  0.6409419955690255  0.38514135612486894  1.0000
  S   S32       1.0  0.18090296045876833  0.14094199538217322  0.1148586437129492  1.0000
  S   S33       1.0  0.2659265929658867  0.653001351453516  0.23780710337774305  1.0000
  S   S34       1.0  0.7340734072373687  0.15300135126666364  0.26219289672564  1.0000
  S   S35       1.0  0.7340734073733195  0.3469986480070798  0.7621928967731382  1.0000
  S   S36       1.0  0.26592659310183736  0.8469986481939321  0.7378071034252413  1.0000
  S   S37       1.0  0.2368875585736008  0.3632393160283132  0.33963402154340977  1.0000
  S   S38       1.0  0.7631124416296546  0.8632393162151657  0.16036597855997328  1.0000
  S   S39       1.0  0.7631124417656053  0.6367606834322825  0.6603659786074715  1.0000
  S   S40       1.0  0.23688755814105728  0.13676068415853915  0.8396340213253431  1.0000
  S   S41       1.0  0.423591399477185  0.6177535774561379  0.37502120507655384  1.0000
  S   S42       1.0  0.5764086001575763  0.11775357726928558  0.12497879476126433  1.0000
  S   S43       1.0  0.576408600293527  0.3822464229175668  0.6249787948087625  1.0000
  S   S44       1.0  0.4235913996131357  0.8822464231044191  0.8750212051240522  1.0000
  S   S45       1.0  0.40127335296738925  0.3790701497089969  0.46487200166865245  1.0000
  S   S46       1.0  0.5987266472358662  0.8790701489827403  0.03512799843473055  1.0000
  S   S47       1.0  0.5987266468033228  0.6209298506647078  0.5351279982166639  1.0000
  S   S48       1.0  0.40127335310333984  0.1209298504778555  0.9648720017161506  1.0000
  S   S49       1.0  0.9845522353664348  0.30207731931122156  0.2441933814163964  1.0000
  S   S50       1.0  0.015447764268326563  0.8020773194980738  0.2558066184214217  1.0000
  S   S51       1.0  0.01544776440427721  0.6979226801493743  0.7558066184689199  1.0000
  S   S52       1.0  0.9845522355023855  0.1979226799625219  0.7441933814638947  1.0000
