data_image0
_chemical_formula_structural       H22C30N6O6F8S2
_chemical_formula_sum              "H22 C30 N6 O6 F8 S2"
_cell_length_a       8.746794044957753
_cell_length_b       10.212803377891651
_cell_length_c       10.27033235315544
_cell_angle_alpha    68.13682533759345
_cell_angle_beta     73.4592226167407
_cell_angle_gamma    66.73287518980064

_space_group_name_H-M_alt    "P 1"
_space_group_IT_number       1

loop_
  _space_group_symop_operation_xyz
  'x, y, z'

loop_
  _atom_site_type_symbol
  _atom_site_label
  _atom_site_symmetry_multiplicity
  _atom_site_fract_x
  _atom_site_fract_y
  _atom_site_fract_z
  _atom_site_occupancy
  H   H1        1.0  0.7746543538101996  0.9562568040175496  0.7331840146845912  1.0000
  H   H2        1.0  0.22534564620409092  0.043743195526668575  0.2668159859205426  1.0000
  H   H3        1.0  0.6265374049240755  0.7987738760831733  0.4209783685837477  1.0000
  H   H4        1.0  0.37346259509852947  0.20122612345889018  0.5790216310465109  1.0000
  H   H5        1.0  0.5454085951402629  0.5688295167142857  0.5233163420806639  1.0000
  H   H6        1.0  0.45459140487402766  0.43117048282993237  0.4766836585244697  1.0000
  H   H7        1.0  0.6613855865705217  0.5050370660080651  0.9277264949523351  1.0000
  H   H8        1.0  0.338614413443769  0.494962933536153  0.07227350565279872  1.0000
  H   H9        1.0  0.7369655593488471  0.7376695275442045  0.8278635541091129  1.0000
  H   H10       1.0  0.2630344406654435  0.26233047200001364  0.17213644649602075  1.0000
  H   H11       1.0  0.9319272170378096  0.8023172427790312  0.22281005361860778  1.0000
  H   H12       1.0  0.06807278377246165  0.19768275787163184  0.7771899463881328  1.0000
  H   H13       1.0  0.047225964865408185  0.7209440064211609  0.08099558123653676  1.0000
  H   H14       1.0  0.9527740351488825  0.2790559931230572  0.919004419368597  1.0000
  H   H15       1.0  0.8481114786936326  0.6945025904884832  0.17364912735921903  1.0000
  H   H16       1.0  0.1518885213206581  0.30549740905573497  0.8263508732459146  1.0000
  H   H17       1.0  0.6411417477191886  0.0059740994011396945  0.21164213705496018  1.0000
  H   H18       1.0  0.35885825230341634  0.9940259001409238  0.7883578625752985  1.0000
  H   H19       1.0  0.5709449052663761  0.8884570755255295  0.16252827093118882  1.0000
  H   H20       1.0  0.42905509434800115  0.11154292513419291  0.8374717293560019  1.0000
  H   H21       1.0  0.5331240864321779  0.0829468484285675  0.06121266045147972  1.0000
  H   H22       1.0  0.46687591359042707  0.917053151113496  0.9387873391787789  1.0000
  C   C1        1.0  0.6331801338594365  0.734173546432772  0.5317318755249869  1.0000
  C   C2        1.0  0.36681986615485407  0.26582645311144604  0.4682681250801468  1.0000
  C   C3        1.0  0.785404330267173  0.11099839237698289  0.3919758512980292  1.0000
  C   C4        1.0  0.2145956693555187  0.8890016082805848  0.6080241480142862  1.0000
  C   C5        1.0  0.6860004857021049  0.7837816653246099  0.616975718991535  1.0000
  C   C6        1.0  0.3139995143205002  0.21621833421745357  0.3830242806387234  1.0000
  C   C7        1.0  0.8580540870565706  0.3354033966172659  0.27722820125318837  1.0000
  C   C8        1.0  0.14194591416192817  0.6645966029157382  0.7227717980966201  1.0000
  C   C9        1.0  0.811669314605976  0.22441505774087844  0.26826638367074196  1.0000
  C   C10       1.0  0.18833068501671574  0.7755849429166893  0.7317336156415736  1.0000
  C   C11       1.0  0.7297728531377785  0.9201873945447372  0.551450661857482  1.0000
  C   C12       1.0  0.2702271464849133  0.07981260611283057  0.44854933745483344  1.0000
  C   C13       1.0  0.5884021085325949  0.606096011538547  0.5883841285833249  1.0000
  C   C14       1.0  0.41159789109009687  0.3939039891190207  0.4116158707289905  1.0000
  C   C15       1.0  0.5992595379566867  0.5256799660432335  0.730986436864447  1.0000
  C   C16       1.0  0.40074046205760405  0.47432003350098456  0.2690135637406866  1.0000
  C   C17       1.0  0.8770577540234455  0.33587117473095174  0.40892773408178384  1.0000
  C   C18       1.0  0.12294224599084523  0.6641288248132663  0.5910722665233501  1.0000
  C   C19       1.0  0.8498066288098136  0.2250840542474592  0.5334088204716619  1.0000
  C   C20       1.0  0.15019337120447696  0.7749159452967589  0.4665911801334718  1.0000
  C   C21       1.0  0.8040457260166554  0.11282478735455205  0.5247196869075088  1.0000
  C   C22       1.0  0.19595427400594959  0.8871752121875114  0.47528031272274973  1.0000
  C   C23       1.0  0.6539993506683939  0.5709036633830533  0.8173514654566778  1.0000
  C   C24       1.0  0.3460006493542112  0.42909633615901005  0.18264853417358068  1.0000
  C   C25       1.0  0.6962549814638705  0.7008896511780784  0.760380652412125  1.0000
  C   C26       1.0  0.30374501935471476  0.29911034947042997  0.2396193466197404  1.0000
  C   C27       1.0  0.9218774773750424  0.7706136102029068  0.1355237362258952  1.0000
  C   C28       1.0  0.07812252223933482  0.22938639045681555  0.8644762640612955  1.0000
  C   C29       1.0  0.6188293837630082  0.9829832997647694  0.12342877188243236  1.0000
  C   C30       1.0  0.38117061625128246  0.017016699779448634  0.8765712287227014  1.0000
  N   N1        1.0  0.767367470429121  0.9905784355078523  0.6239066865523786  1.0000
  N   N2        1.0  0.23263252918525607  0.00942156515187012  0.376093313734812  1.0000
  N   N3        1.0  0.7390016306143176  0.9906981380655474  0.4117850974472099  1.0000
  N   N4        1.0  0.2609983694082876  0.009301861476516158  0.5882149021830487  1.0000
  N   N5        1.0  0.5504232610972506  0.3914813620181453  0.7914363526414603  1.0000
  N   N6        1.0  0.4495767389170401  0.6085186375260728  0.20856364796367338  1.0000
  O   O1        1.0  0.48842047678952205  0.35928762561579336  0.7165314300827049  1.0000
  O   O2        1.0  0.5115795228248552  0.6407123750439291  0.2834685702044856  1.0000
  O   O3        1.0  0.5725987557966019  0.31499861984214134  0.915151991819469  1.0000
  O   O4        1.0  0.4274012442260031  0.6850013796999221  0.08484800781078958  1.0000
  O   O5        1.0  0.7888778090494828  0.8810667880396994  0.9015906134620147  1.0000
  O   O6        1.0  0.21112219057320916  0.11893321261786831  0.09840938585030073  1.0000
  F   F1        1.0  0.8686300237486714  0.2275629266710416  0.6590258569103515  1.0000
  F   F2        1.0  0.1313699762656194  0.7724370728731765  0.3409741436947821  1.0000
  F   F3        1.0  0.7883561573755272  0.22895735012646246  0.14172184126237491  1.0000
  F   F4        1.0  0.2116438426387635  0.7710426494177556  0.8582781593427588  1.0000
  F   F5        1.0  0.8841218068941913  0.4463243600866885  0.15924301060234214  1.0000
  F   F6        1.0  0.11587819391607981  0.5536756405639743  0.8407569894043985  1.0000
  F   F7        1.0  0.9229101721776193  0.44597698038214306  0.41275441812644276  1.0000
  F   F8        1.0  0.07708982784498579  0.5540230191599204  0.5872455815038158  1.0000
  S   S1        1.0  0.8168512414645165  0.9366862993014321  0.009125745657227737  1.0000
  S   S2        1.0  0.1831487581498607  0.06331370135829034  0.9908742546299629  1.0000
