data_image0
_chemical_formula_structural       H32C36N4I4
_chemical_formula_sum              "H32 C36 N4 I4"
_cell_length_a       10.634065725392675
_cell_length_b       7.342186701871195
_cell_length_c       11.051043968063073
_cell_angle_alpha    90.0
_cell_angle_beta     100.74055168221936
_cell_angle_gamma    90.0

_space_group_name_H-M_alt    "P 1"
_space_group_IT_number       1

loop_
  _space_group_symop_operation_xyz
  'x, y, z'

loop_
  _atom_site_type_symbol
  _atom_site_label
  _atom_site_symmetry_multiplicity
  _atom_site_fract_x
  _atom_site_fract_y
  _atom_site_fract_z
  _atom_site_occupancy
  H   H1        1.0  0.06401569477899838  0.8290188546211641  0.6962012179698818  1.0000
  H   H2        1.0  0.43598430524032983  0.3290188547485917  0.8037987821925939  1.0000
  H   H3        1.0  0.9359843056319247  0.17098114512398072  0.30379878200001686  1.0000
  H   H4        1.0  0.5640156951705934  0.6709811449965531  0.19620121777730481  1.0000
  H   H5        1.0  0.8367582531449558  0.8378699425379884  0.5937180865448435  1.0000
  H   H6        1.0  0.663241746530788  0.337869942665416  0.9062819134086224  1.0000
  H   H7        1.0  0.16324174632532648  0.16213005720715642  0.40628191342367304  1.0000
  H   H8        1.0  0.33675825293949435  0.6621300570797288  0.0937180865598942  1.0000
  H   H9        1.0  0.5198153611015967  0.8769285039236467  0.9220224239513138  1.0000
  H   H10       1.0  0.9801846385741474  0.37692850405107425  0.5779775760021522  1.0000
  H   H11       1.0  0.4801846383686857  0.12307149582149815  0.07797757601720284  1.0000
  H   H12       1.0  0.019815360896135104  0.6230714956940706  0.4220224239663644  1.0000
  H   H13       1.0  0.7268064004299362  0.913074785784385  0.06935750851282113  1.0000
  H   H14       1.0  0.773193599608905  0.41307478591181246  0.43064249218414463  1.0000
  H   H15       1.0  0.27319359998098697  0.08692521396075996  0.9306424914570774  1.0000
  H   H16       1.0  0.2268063998613775  0.5869252138333324  0.5693575077843719  1.0000
  H   H17       1.0  0.940459740857705  0.044159054129932415  0.11335507521671405  1.0000
  H   H18       1.0  0.5595402590041723  0.5441590540025049  0.38664492455922556  1.0000
  H   H19       1.0  0.05954025955321801  0.9558409456152124  0.8866449247531845  1.0000
  H   H20       1.0  0.44045974046611014  0.45584094574264  0.613355075409291  1.0000
  H   H21       1.0  0.9832134189601454  0.20648711093298983  0.009864596709038035  1.0000
  H   H22       1.0  0.5167865809017321  0.7064871108055621  0.49013540306690156  1.0000
  H   H23       1.0  0.01678658051013715  0.793512888812155  0.9901354032594786  1.0000
  H   H24       1.0  0.48321341950919094  0.29351288893958255  0.509864596902997  1.0000
  H   H25       1.0  0.6664638821675987  0.11808856205999683  0.6393037982302533  1.0000
  H   H26       1.0  0.8335361175081454  0.6180885619325692  0.8606962017232126  1.0000
  H   H27       1.0  0.3335361173026838  0.8819114376851479  0.3606962017382633  1.0000
  H   H28       1.0  0.16646388290277775  0.3819114378125756  0.139303798246686  1.0000
  H   H29       1.0  0.8802837167544266  0.1611257964467864  0.7734936222596753  1.0000
  H   H30       1.0  0.6197162829213174  0.6611257963193589  0.7265063776937907  1.0000
  H   H31       1.0  0.11971628271585583  0.8388742046603506  0.22650637770884138  1.0000
  H   H32       1.0  0.38028371654896503  0.338874203425786  0.2734936222747259  1.0000
  C   C1        1.0  0.12841636588748526  0.9965685492763656  0.5584071478163506  1.0000
  C   C2        1.0  0.371583634131843  0.49656854940379325  0.9415928523461251  1.0000
  C   C3        1.0  0.8715836345234379  0.003431450468779157  0.44159285215354804  1.0000
  C   C4        1.0  0.6284163653384395  0.5034314503413516  0.058407147622391506  1.0000
  C   C5        1.0  0.03636069001763585  0.9055950617961617  0.6108646373431351  1.0000
  C   C6        1.0  0.4636393098247286  0.40559506192358913  0.8891353618983143  1.0000
  C   C7        1.0  0.9636393103932873  0.09440493794898323  0.38913536262676357  1.0000
  C   C8        1.0  0.5363606896455537  0.5944049378215557  0.11086463807020226  1.0000
  C   C9        1.0  0.907937041214394  0.9091417327073444  0.5524225333280015  1.0000
  C   C10       1.0  0.5920629586383136  0.40914173283477195  0.9475774675464906  1.0000
  C   C11       1.0  0.09206295843285198  0.09085826703780041  0.4475774675615414  1.0000
  C   C12       1.0  0.4079370410089326  0.5908582669103728  0.052422533343052115  1.0000
  C   C13       1.0  0.6019416485749044  0.9410299057417254  0.8927723200753523  1.0000
  C   C14       1.0  0.8980583520414803  0.441029905869153  0.6072276798794957  1.0000
  C   C15       1.0  0.39805835183601884  0.05897009400341937  0.10722767989454637  1.0000
  C   C16       1.0  0.10194164836944276  0.5589700938759918  0.3927723200904029  1.0000
  C   C17       1.0  0.7179794213195492  0.9604367916989683  0.974593120094022  1.0000
  C   C18       1.0  0.7820205792968354  0.460436791826396  0.5254068798608259  1.0000
  C   C19       1.0  0.28202057909137385  0.039563208046176426  0.025406879875876538  1.0000
  C   C20       1.0  0.21797942111408775  0.5395632079187488  0.47459312010907284  1.0000
  C   C21       1.0  0.821827219737744  0.041679095401103095  0.9339739920097568  1.0000
  C   C22       1.0  0.678172779938  0.5416790952736755  0.566026007943709  1.0000
  C   C23       1.0  0.17817277973253837  0.9583209043440418  0.06602600795875975  1.0000
  C   C24       1.0  0.3218272195322825  0.4583209044714693  0.43397399202480746  1.0000
  C   C25       1.0  0.949679377461439  0.06585628909120086  0.017043921856513745  1.0000
  C   C26       1.0  0.550320622577402  0.5658562889637733  0.482956078840452  1.0000
  C   C27       1.0  0.050320622185807115  0.934143710653944  0.982956079033029  1.0000
  C   C28       1.0  0.4496793778335211  0.43414371078137154  0.5170439211294466  1.0000
  C   C29       1.0  0.683407871449007  0.07464776261550521  0.7355421413282789  1.0000
  C   C30       1.0  0.8165921291673777  0.5746477624880776  0.764457858626569  1.0000
  C   C31       1.0  0.31659212896191613  0.9253522371296397  0.26445785864161975  1.0000
  C   C32       1.0  0.1834078712435454  0.42535223725706717  0.23554214134332954  1.0000
  C   C33       1.0  0.8029357620067215  0.09782568724613734  0.8106559636798081  1.0000
  C   C34       1.0  0.6970642376690225  0.5978256871187098  0.6893440362736578  1.0000
  C   C35       1.0  0.1970642384042016  0.9021743124990075  0.18934403629009042  1.0000
  C   C36       1.0  0.3029357618012599  0.4021743126264351  0.31065596369485887  1.0000
  N   N1        1.0  0.5837833225952538  0.9980150447730401  0.7753236143770196  1.0000
  N   N2        1.0  0.9162166780211309  0.4980150449004677  0.7246763855778284  1.0000
  N   N3        1.0  0.41621667781566934  0.001984954972104668  0.22467638559287909  1.0000
  N   N4        1.0  0.08378332238979219  0.5019849548446771  0.2753236143920702  1.0000
  I   I1        1.0  0.32349982076269446  0.9907752670122195  0.6461409324999001  1.0000
  I   I2        1.0  0.17650017925663372  0.4907752671396471  0.8538590676625756  1.0000
  I   I3        1.0  0.6765001796482286  0.009224732732925293  0.35385906746999857  1.0000
  I   I4        1.0  0.8234998202136485  0.5092247326054977  0.14614093230594102  1.0000
