data_image0
_chemical_formula_structural       H12C20N2F16I2
_chemical_formula_sum              "H12 C20 N2 F16 I2"
_cell_length_a       5.226523471419867
_cell_length_b       9.605721918052138
_cell_length_c       13.470662285814301
_cell_angle_alpha    106.02004439493933
_cell_angle_beta     98.96708991150186
_cell_angle_gamma    102.34457473636608

_space_group_name_H-M_alt    "P 1"
_space_group_IT_number       1

loop_
  _space_group_symop_operation_xyz
  'x, y, z'

loop_
  _atom_site_type_symbol
  _atom_site_label
  _atom_site_symmetry_multiplicity
  _atom_site_fract_x
  _atom_site_fract_y
  _atom_site_fract_z
  _atom_site_occupancy
  H   H1        1.0  0.06188994319340024  0.7190331427563362  0.2707315917544587  1.0000
  H   H2        1.0  0.9381100573990774  0.28096685803807186  0.729268408341699  1.0000
  H   H3        1.0  0.7462557316011618  0.9745939437647713  0.04457004036625398  1.0000
  H   H4        1.0  0.2537442685735044  0.02540605596214734  0.955429959725901  1.0000
  H   H5        1.0  0.19326898412342092  0.7439623097719034  0.9226569822619691  1.0000
  H   H6        1.0  0.8067310160512451  0.2560376899550152  0.07734301783018568  1.0000
  H   H7        1.0  0.778149629824633  0.8672282566432573  0.9193269867872604  1.0000
  H   H8        1.0  0.22185037076784456  0.13277174415115076  0.08067301330889733  1.0000
  H   H9        1.0  0.3887322816066191  0.5835667805931979  0.010881123383118996  1.0000
  H   H10       1.0  0.6112677185680471  0.41643321913372067  0.9891188767090359  1.0000
  H   H11       1.0  0.8543233083091758  0.8878315941421341  0.19380585036949521  1.0000
  H   H12       1.0  0.14567669186549032  0.11216840558478433  0.8061941497226596  1.0000
  C   C1        1.0  0.6644482966991361  0.3429683491630101  0.31604354488103586  1.0000
  C   C2        1.0  0.3355517038933413  0.6570316516313979  0.6839564552151218  1.0000
  C   C3        1.0  0.48230736098408494  0.2465600885176276  0.3675276596874328  1.0000
  C   C4        1.0  0.5176926396083926  0.7534399122767805  0.6324723404087249  1.0000
  C   C5        1.0  0.6142849424409703  0.14030369232526507  0.4164926193944059  1.0000
  C   C6        1.0  0.38571505770942915  0.8596963081139362  0.5835073799083887  1.0000
  C   C7        1.0  0.44387341665610164  0.06165556291146371  0.4824539882251035  1.0000
  C   C8        1.0  0.5561265835185645  0.9383444368154549  0.5175460118670513  1.0000
  C   C9        1.0  0.08737562444719996  0.7284783196735978  0.19380260566478183  1.0000
  C   C10       1.0  0.9126243757274661  0.27152168005332067  0.806197394427373  1.0000
  C   C11       1.0  0.971277136258192  0.8223424446432204  0.15022561623873232  1.0000
  C   C12       1.0  0.028722863916474255  0.17765755508369807  0.8497743838534226  1.0000
  C   C13       1.0  0.007316390324447644  0.8317635992997529  0.05127547661396294  1.0000
  C   C14       1.0  0.9926836102680298  0.16823640149465519  0.9487245234821948  1.0000
  C   C15       1.0  0.8900985016283556  0.9326646842826696  0.0011401898737817128  1.0000
  C   C16       1.0  0.10990149896412182  0.06733531651173848  0.998859810222376  1.0000
  C   C17       1.0  0.1607822621488996  0.7437738337130669  0.0004857932703803754  1.0000
  C   C18       1.0  0.8392177380257665  0.2562261660138515  0.9995142068217744  1.0000
  C   C19       1.0  0.2696485857347083  0.6531886650121733  0.04949951249358316  1.0000
  C   C20       1.0  0.730351412939929  0.3468113357774207  0.950500487595848  1.0000
  N   N1        1.0  0.2347790796603628  0.645402930579272  0.14467091387642564  1.0000
  N   N2        1.0  0.7652209209321148  0.35459707021513603  0.8553290862197321  1.0000
  F   F1        1.0  0.8825869239321773  0.4390554519377522  0.39164441131839406  1.0000
  F   F2        1.0  0.11741307666030022  0.5609445488566558  0.6083555887777636  1.0000
  F   F3        1.0  0.2593583305246977  0.15715624424877656  0.29012300538429353  1.0000
  F   F4        1.0  0.7406416677321284  0.842843755473328  0.7098769947011349  1.0000
  F   F5        1.0  0.40317324358809903  0.34138160210364266  0.44477323950700115  1.0000
  F   F6        1.0  0.5968267546687269  0.6586183976184616  0.5552267605784271  1.0000
  F   F7        1.0  0.8576995294821266  0.22245773706340474  0.4822706148538658  1.0000
  F   F8        1.0  0.14230047069253948  0.7775422626635137  0.517729385238289  1.0000
  F   F9        1.0  0.6534479389912556  0.031493352037975486  0.3348130327511276  1.0000
  F   F10       1.0  0.3465520611834105  0.9685066476889429  0.6651869673410272  1.0000
  F   F11       1.0  0.18698022227147476  0.9946048952118942  0.42299119568888205  1.0000
  F   F12       1.0  0.8130197774611133  0.005395104159817325  0.5770088036099098  1.0000
  F   F13       1.0  0.7576966436106043  0.2466147958087317  0.24265483494073192  1.0000
  F   F14       1.0  0.24230335656406177  0.7533852039181868  0.7573451651514229  1.0000
  F   F15       1.0  0.43836297986855066  0.17076806301032382  0.5710810712565083  1.0000
  F   F16       1.0  0.5616370188060867  0.8292319377792703  0.4289189288329228  1.0000
  I   I1        1.0  0.4535695122276976  0.47361176281288386  0.23746303970912833  1.0000
  I   I2        1.0  0.5464304883647799  0.5263882379815241  0.7625369603870293  1.0000
