data_image0
_chemical_formula_structural       H12C18N2F12I2
_chemical_formula_sum              "H12 C18 N2 F12 I2"
_cell_length_a       5.2299761093948325
_cell_length_b       9.704574987114379
_cell_length_c       11.35864993640718
_cell_angle_alpha    97.82124745323631
_cell_angle_beta     101.56603532399818
_cell_angle_gamma    101.5292221215325

_space_group_name_H-M_alt    "P 1"
_space_group_IT_number       1

loop_
  _space_group_symop_operation_xyz
  'x, y, z'

loop_
  _atom_site_type_symbol
  _atom_site_label
  _atom_site_symmetry_multiplicity
  _atom_site_fract_x
  _atom_site_fract_y
  _atom_site_fract_z
  _atom_site_occupancy
  H   H1        1.0  0.7971689695525925  0.2345545408994939  0.08525585976946184  1.0000
  H   H2        1.0  0.20283103042470269  0.7654454590827979  0.9147441402507894  1.0000
  H   H3        1.0  0.9614271175806609  0.3416852699354536  0.6931271791724125  1.0000
  H   H4        1.0  0.03857288239663433  0.6583147300468382  0.3068728208478388  1.0000
  H   H5        1.0  0.6077152720230299  0.41498374638983004  0.9836757251697895  1.0000
  H   H6        1.0  0.3922847279542652  0.5850162535924617  0.016324274850461666  1.0000
  H   H7        1.0  0.16286218285890425  0.15458147029257466  0.7817847778317677  1.0000
  H   H8        1.0  0.8371378171183912  0.8454185296897171  0.21821522218848374  1.0000
  H   H9        1.0  0.22259183008530814  0.11274990341028707  0.0932204267408283  1.0000
  H   H10       1.0  0.7774081698919871  0.8872500965720045  0.906779573279423  1.0000
  H   H11       1.0  0.2530951428010548  0.03132303805194102  0.9490792014431082  1.0000
  H   H12       1.0  0.7469048571762404  0.9686769619303506  0.050920798577143114  1.0000
  C   C1        1.0  0.3566028872655587  0.7252287934945674  0.6418794028261624  1.0000
  C   C2        1.0  0.6433971127117366  0.27477120648772435  0.35812059719408895  1.0000
  C   C3        1.0  0.5408040010452482  0.8301406315883877  0.5847353639806405  1.0000
  C   C4        1.0  0.4591959989320471  0.16985936839390395  0.4152646360396108  1.0000
  C   C5        1.0  0.4205248793759542  0.9558078245404273  0.5398769388713894  1.0000
  C   C6        1.0  0.5794751205388383  0.04419217630321971  0.46012306023915145  1.0000
  C   C7        1.0  0.7311603586583953  0.3546322687688123  0.941157783738184  1.0000
  C   C8        1.0  0.2688396413189  0.6453677312134795  0.058842216282067206  1.0000
  C   C9        1.0  0.8361699645993178  0.2529452005746522  0.997387525764309  1.0000
  C   C10       1.0  0.16383003537797747  0.7470547994076395  0.002612474255942201  1.0000
  C   C11       1.0  0.9951889660527923  0.1772739145866891  0.9411239833299446  1.0000
  C   C12       1.0  0.004811034314459357  0.8227260864481966  0.0588760166947096  1.0000
  C   C13       1.0  0.1099976027490283  0.06560448185411565  0.9988015643196799  1.0000
  C   C14       1.0  0.8900023972282668  0.9343955181281759  0.001198435700571417  1.0000
  C   C15       1.0  0.9288231196629051  0.3137844527619989  0.7796702562817354  1.0000
  C   C16       1.0  0.0711768803143902  0.6862155472202928  0.220329743738516  1.0000
  C   C17       1.0  0.04109848041216145  0.20991074858227862  0.8298000817789991  1.0000
  C   C18       1.0  0.9589015195651337  0.790089251400013  0.17019991824125227  1.0000
  N   N1        1.0  0.7753761665877216  0.3844952145141503  0.8339555890656621  1.0000
  N   N2        1.0  0.22462383338957376  0.6155047854681415  0.16604441095458922  1.0000
  F   F1        1.0  0.2664082814244935  0.8055734136974401  0.7278730635698671  1.0000
  F   F2        1.0  0.7335917181003427  0.19442658609361319  0.27212693553627093  1.0000
  F   F3        1.0  0.13647312540749118  0.6509119665577147  0.5527303103964021  1.0000
  F   F4        1.0  0.863526874569804  0.3490880334245771  0.4472696896238492  1.0000
  F   F5        1.0  0.7740675463330047  0.891586939482552  0.6713165340969811  1.0000
  F   F6        1.0  0.22593245364429065  0.10841306049973974  0.32868346592327025  1.0000
  F   F7        1.0  0.41621810823819794  0.04729556635810001  0.6419137786715806  1.0000
  F   F8        1.0  0.5837818917390974  0.9527044336241917  0.3580862213486708  1.0000
  F   F9        1.0  0.16298285074723814  0.9012757017855687  0.4730849481445544  1.0000
  F   F10       1.0  0.8370171491675543  0.09872429905807857  0.5269150509659863  1.0000
  F   F11       1.0  0.6004653257237909  0.7515002057969454  0.4892094168281548  1.0000
  F   F12       1.0  0.3995346742535044  0.2484997941853462  0.5107905831920966  1.0000
  I   I1        1.0  0.5619161427747698  0.5739992302655821  0.7288542500197875  1.0000
  I   I2        1.0  0.4380838572025254  0.42600076971670947  0.27114575000046365  1.0000
