data_image0
_chemical_formula_structural       H40C50N6O18I4
_chemical_formula_sum              "H40 C50 N6 O18 I4"
_cell_length_a       8.109740483471885
_cell_length_b       9.373299332055527
_cell_length_c       18.23926285753256
_cell_angle_alpha    86.13521649962358
_cell_angle_beta     89.79302447000218
_cell_angle_gamma    66.78256548838759

_space_group_name_H-M_alt    "P 1"
_space_group_IT_number       1

loop_
  _space_group_symop_operation_xyz
  'x, y, z'

loop_
  _atom_site_type_symbol
  _atom_site_label
  _atom_site_symmetry_multiplicity
  _atom_site_fract_x
  _atom_site_fract_y
  _atom_site_fract_z
  _atom_site_occupancy
  H   H1        1.0  0.8672148087205428  0.6703635588059639  0.2117389870951372  1.0000
  H   H2        1.0  0.13278519055020982  0.32963644034065837  0.7882610130368277  1.0000
  H   H3        1.0  0.011613083746687214  0.3974411974150709  0.33285771182480267  1.0000
  H   H4        1.0  0.9883869161966164  0.6025588029124097  0.6671422883119237  1.0000
  H   H5        1.0  0.6411597864853984  0.31285618231549406  0.7952051196454852  1.0000
  H   H6        1.0  0.35884021397626814  0.6871438169416303  0.20479487993860812  1.0000
  H   H7        1.0  0.7436223785627459  0.3478189603854786  0.6686061053326396  1.0000
  H   H8        1.0  0.25637762193146596  0.6521810387817835  0.3313938948011326  1.0000
  H   H9        1.0  0.500874289305837  0.5541327706362068  0.6786603189188244  1.0000
  H   H10       1.0  0.4991257106374667  0.44586722969127357  0.3213396812179019  1.0000
  H   H11       1.0  0.6793936879005069  0.452402528081305  0.5906350215991919  1.0000
  H   H12       1.0  0.3206063120427968  0.5475974722461757  0.40936497853753445  1.0000
  H   H13       1.0  0.37384821349063685  0.08001338976302641  0.2862551514429684  1.0000
  H   H14       1.0  0.6261517864526669  0.9199866105644539  0.7137448486937579  1.0000
  H   H15       1.0  0.23877887681308677  0.4214611814039738  0.10163994793892317  1.0000
  H   H16       1.0  0.7612211236811249  0.5785388177632883  0.898360052194849  1.0000
  H   H17       1.0  0.6802146194042716  0.9748877173148273  0.08956662654212222  1.0000
  H   H18       1.0  0.31978538108994026  0.025112281852434734  0.91043337359165  1.0000
  H   H19       1.0  0.1409700603925546  0.8925694830425284  0.718014643737202  1.0000
  H   H20       1.0  0.859029939550749  0.10743051728495213  0.28198535639952427  1.0000
  H   H21       1.0  0.2665907695608997  0.5633888538440589  0.9066270995414584  1.0000
  H   H22       1.0  0.7334092309333122  0.43661114532320305  0.0933729005923139  1.0000
  H   H23       1.0  0.8319073749006618  0.014652148742197437  0.9138612907426537  1.0000
  H   H24       1.0  0.16809262381918305  0.9853478515646431  0.08613870939226548  1.0000
  H   H25       1.0  0.8056656740008205  0.2987754084048213  0.43540042039850974  1.0000
  H   H26       1.0  0.19433432526993222  0.701224590741801  0.5645995797334552  1.0000
  H   H27       1.0  0.8870412105014851  0.7130826791936682  0.39677384536767063  1.0000
  H   H28       1.0  0.11295878999272689  0.2869173199735938  0.6032261547661016  1.0000
  H   H29       1.0  0.739341533072913  0.8443691940992238  0.5118062010437443  1.0000
  H   H30       1.0  0.2606584668378456  0.15563080631811899  0.48819379854330314  1.0000
  H   H31       1.0  0.719965311482811  0.719967252172088  0.5858813564508231  1.0000
  H   H32       1.0  0.2800346884604927  0.28003274815539236  0.4141186436859033  1.0000
  H   H33       1.0  0.43361281123645873  0.8889652805893373  0.6328278012858608  1.0000
  H   H34       1.0  0.5663871892577532  0.11103471857792463  0.3671721988479114  1.0000
  H   H35       1.0  0.10664939457557766  0.010783476710265328  0.6191411841443721  1.0000
  H   H36       1.0  0.8933506053677263  0.9892165236172152  0.3808588159923542  1.0000
  H   H37       1.0  0.14899516856236053  0.9222489384436061  0.38900113787462065  1.0000
  H   H38       1.0  0.851004831899306  0.07775106081351821  0.6109988617094728  1.0000
  H   H39       1.0  0.4740044406670023  0.8087510295085256  0.40211938155861265  1.0000
  H   H40       1.0  0.5259955592763016  0.19124897081895478  0.5978806185781137  1.0000
  C   C1        1.0  0.6577860207789797  0.8604067030790093  0.22978617718291675  1.0000
  C   C2        1.0  0.3422139791317787  0.13959329733833356  0.7702138224041306  1.0000
  C   C3        1.0  0.5396882639355975  0.012873978687610439  0.1920196981197533  1.0000
  C   C4        1.0  0.46031173600770603  0.9871260216398701  0.8079803020169729  1.0000
  C   C5        1.0  0.39875286667971105  0.11558387514782094  0.23077214235630653  1.0000
  C   C6        1.0  0.6012471332635926  0.8844161251796597  0.7692278577804197  1.0000
  C   C7        1.0  0.29104773536350786  0.26223244151764064  0.19810386841333624  1.0000
  C   C8        1.0  0.7089522645797958  0.7377675588098398  0.8018961317233901  1.0000
  C   C9        1.0  0.32305152930387787  0.3063455732610873  0.1261621874521972  1.0000
  C   C10       1.0  0.6769484694159669  0.6936544270457532  0.8738378126827218  1.0000
  C   C11       1.0  0.4618620333831009  0.20162245845039373  0.08748587735504287  1.0000
  C   C12       1.0  0.538137966560203  0.7983775418770866  0.9125141227816835  1.0000
  C   C13       1.0  0.5706459560522275  0.055248373435217726  0.11972134027729579  1.0000
  C   C14       1.0  0.4293540444419845  0.9447516257320443  0.8802786598564765  1.0000
  C   C15       1.0  0.14077832259959663  0.37414016467596994  0.23856048197785026  1.0000
  C   C16       1.0  0.8592216773437072  0.6258598356515105  0.761439518158876  1.0000
  C   C17       1.0  0.8602245388204156  0.12524980083998008  0.7758207161056738  1.0000
  C   C18       1.0  0.1397754611228881  0.8747501994875003  0.22417928403105236  1.0000
  C   C19       1.0  0.9749120696270034  0.9702819479060875  0.8120808785283146  1.0000
  C   C20       1.0  0.02508793031630034  0.029718052421392943  0.1879191216084118  1.0000
  C   C21       1.0  0.11425188885580971  0.8630200146560828  0.7741290670843676  1.0000
  C   C22       1.0  0.8857481110874941  0.1369799856713976  0.2258709330523588  1.0000
  C   C23       1.0  0.2186583581422726  0.7168538443035305  0.8084282257797918  1.0000
  C   C24       1.0  0.7813416423519391  0.2831461548637316  0.1915717743539805  1.0000
  C   C25       1.0  0.18434209789071151  0.6776608511916521  0.8807975294357487  1.0000
  C   C26       1.0  0.8156579026035004  0.3223391479756099  0.11920247069802345  1.0000
  C   C27       1.0  0.04585924383651991  0.7855391520591104  0.9182037196239153  1.0000
  C   C28       1.0  0.9541407561067838  0.21446084826837014  0.08179628051281096  1.0000
  C   C29       1.0  0.9408020273749094  0.9313449475196662  0.8845960970435497  1.0000
  C   C30       1.0  0.05919797256839427  0.06865505280781435  0.11540390309317668  1.0000
  C   C31       1.0  0.36956643041409204  0.5991531517942372  0.7703994547126599  1.0000
  C   C32       1.0  0.6304335695292118  0.40084684853324315  0.22960054542406633  1.0000
  C   C33       1.0  0.8053930011490641  0.4130398840456089  0.4415113310174742  1.0000
  C   C34       1.0  0.19460699934514766  0.5869601151216531  0.5584886691162981  1.0000
  C   C35       1.0  0.8507398754497102  0.6209012203674649  0.42079241693198294  1.0000
  C   C36       1.0  0.14926012504450156  0.3790987787997971  0.5792075832017893  1.0000
  C   C37       1.0  0.6792749088377709  0.761247666967698  0.5284689001394935  1.0000
  C   C38       1.0  0.3207250911055332  0.23875233335978238  0.47153109999723286  1.0000
  C   C39       1.0  0.4780346470920038  0.8353639755712704  0.5192419275717819  1.0000
  C   C40       1.0  0.5219653528513001  0.16463602475621  0.48075807256494435  1.0000
  C   C41       1.0  0.37158897761770526  0.8960933156362096  0.5791240405776726  1.0000
  C   C42       1.0  0.628411022293053  0.10390668478113328  0.4208759590093748  1.0000
  C   C43       1.0  0.1851877457483445  0.9640197584118028  0.5713097867583188  1.0000
  C   C44       1.0  0.8148122541949594  0.03598024191567736  0.4286902133784076  1.0000
  C   C45       1.0  0.09875654427354146  0.9699300169816736  0.5036560997792409  1.0000
  C   C46       1.0  0.9012434556372169  0.03006998343566943  0.49634389980780663  1.0000
  C   C47       1.0  0.20827963603715222  0.9152126701324869  0.44315663139043737  1.0000
  C   C48       1.0  0.7917203632010552  0.08478732910399776  0.5568433681918487  1.0000
  C   C49       1.0  0.39434505223167704  0.8493403280795091  0.4505955652236457  1.0000
  C   C50       1.0  0.6056549477116266  0.1506596722479713  0.5494044349130806  1.0000
  N   N1        1.0  0.7579773992287105  0.6306147977773637  0.4828357041452258  1.0000
  N   N2        1.0  0.2420226006820478  0.36938520263997904  0.5171642954418216  1.0000
  N   N3        1.0  0.7270107091478653  0.49850929279789485  0.4966884347278075  1.0000
  N   N4        1.0  0.27298929079543854  0.5014907075295857  0.5033115654089187  1.0000
  N   N5        1.0  0.8837188965769804  0.4837849270238084  0.39364059541504237  1.0000
  N   N6        1.0  0.11628110388468611  0.5162150722333161  0.606359404169051  1.0000
  O   O1        1.0  0.7826431059720074  0.7708179190975288  0.1860126043198912  1.0000
  O   O2        1.0  0.2173568939387509  0.22918208131981407  0.8139873952671562  1.0000
  O   O3        1.0  0.6421387737419755  0.8235745995275254  0.2947537155812349  1.0000
  O   O4        1.0  0.3578612262013282  0.17642540079995503  0.7052462845554913  1.0000
  O   O5        1.0  0.11260546043908103  0.31587374355831555  0.3030972434892577  1.0000
  O   O6        1.0  0.8873945394716776  0.6841262568590273  0.6969027560977897  1.0000
  O   O7        1.0  0.052361820342669396  0.5086101453425188  0.2124848139580232  1.0000
  O   O8        1.0  0.9476381796006345  0.4913898549849616  0.7875151861787031  1.0000
  O   O9        1.0  0.7240918977056905  0.20573953724325736  0.8164992645862917  1.0000
  O   O10       1.0  0.2759081022376132  0.7942604630842232  0.18350073555043453  1.0000
  O   O11       1.0  0.8894983972935813  0.1720069622364024  0.7137021468463676  1.0000
  O   O12       1.0  0.1105016026497223  0.827993038091078  0.2862978532903588  1.0000
  O   O13       1.0  0.3879673936962827  0.6392401889050611  0.7012385968679304  1.0000
  O   O14       1.0  0.6120326067979293  0.3607598102622009  0.2987614032658419  1.0000
  O   O15       1.0  0.46881391187501736  0.4739520590491882  0.8032612134821613  1.0000
  O   O16       1.0  0.5311860880682864  0.5260479412782922  0.1967387866545651  1.0000
  O   O17       1.0  0.6635895746215178  0.4501177249325149  0.6447247488866769  1.0000
  O   O18       1.0  0.33641042528924064  0.5498822754848279  0.3552752507003706  1.0000
  I   I1        1.0  0.5143396161219507  0.2629581574754574  0.9796994888368722  1.0000
  I   I2        1.0  0.485660384339716  0.7370418417816671  0.020300510747221123  1.0000
  I   I3        1.0  0.9905625101601728  0.7296520680453187  0.026463210910667802  1.0000
  I   I4        1.0  0.009437489783131104  0.2703479322821617  0.9735367892260587  1.0000
