data_image0
_chemical_formula_structural       H32C36N4O4Br8I4
_chemical_formula_sum              "H32 C36 N4 O4 Br8 I4"
_cell_length_a       7.752442777012456
_cell_length_b       9.145963442220632
_cell_length_c       17.031163412319778
_cell_angle_alpha    90.0
_cell_angle_beta     91.57923299645445
_cell_angle_gamma    90.0

_space_group_name_H-M_alt    "P 1"
_space_group_IT_number       1

loop_
  _space_group_symop_operation_xyz
  'x, y, z'

loop_
  _atom_site_type_symbol
  _atom_site_label
  _atom_site_symmetry_multiplicity
  _atom_site_fract_x
  _atom_site_fract_y
  _atom_site_fract_z
  _atom_site_occupancy
  H   H1        1.0  0.08732524723630274  0.6070799402465028  0.6702165297993122  1.0000
  H   H2        1.0  0.9126747528449081  0.10707994036790233  0.8297834697979419  1.0000
  H   H3        1.0  0.9126747533941985  0.3929200595106981  0.3297834697596408  1.0000
  H   H4        1.0  0.08732524649558475  0.8929200593892985  0.17021652975940577  1.0000
  H   H5        1.0  0.05783448370556295  0.45569752124310525  0.5485801132294231  1.0000
  H   H6        1.0  0.9421655151176769  0.9556975211217056  0.9514198869536054  1.0000
  H   H7        1.0  0.9421655156669673  0.5443024785140956  0.4514198869153043  1.0000
  H   H8        1.0  0.057834484254853345  0.04430247863549523  0.04858011319112209  1.0000
  H   H9        1.0  0.31757564354734225  0.32402131046354454  0.49896803273944934  1.0000
  H   H10       1.0  0.6824243563744783  0.824021310342145  0.0010319673669771363  1.0000
  H   H11       1.0  0.6824243558251879  0.6759786892936563  0.5010319674052783  1.0000
  H   H12       1.0  0.3175756442880602  0.17597868941505587  0.9989680327793555  1.0000
  H   H13       1.0  0.5960821467830375  0.33856342741385104  0.5783164006884444  1.0000
  H   H14       1.0  0.4039178533302107  0.8385634272924515  0.9216835994961896  1.0000
  H   H15       1.0  0.4039178525894927  0.6614365723433498  0.42168359945628314  1.0000
  H   H16       1.0  0.5960821473323278  0.1614365724647494  0.07831640065014327  1.0000
  H   H17       1.0  0.6035524913895115  0.4912310002530643  0.7018407705937837  1.0000
  H   H18       1.0  0.39644750872373663  0.9912310012250433  0.7981592295908502  1.0000
  H   H19       1.0  0.39644750927302697  0.5087689995041366  0.29815922955254903  1.0000
  H   H20       1.0  0.6035524906487936  0.008768999625536145  0.2018407705538774  1.0000
  H   H21       1.0  0.4834483438757065  0.6288020290406564  0.7883409893019692  1.0000
  H   H22       1.0  0.5165516562375416  0.12880202916205602  0.7116590108826648  1.0000
  H   H23       1.0  0.516551656786832  0.3711979707165444  0.2116590108443637  1.0000
  H   H24       1.0  0.4834483431349885  0.8711979705951448  0.28834098926206275  1.0000
  H   H25       1.0  0.2566546302330094  0.6029621673909777  0.8006427434746523  1.0000
  H   H26       1.0  0.7433453685902303  0.10296216751237734  0.6993572567083765  1.0000
  H   H27       1.0  0.7433453691395208  0.3970378323662231  0.19935725667007528  1.0000
  H   H28       1.0  0.25665463078229983  0.8970378322448235  0.30064274343635117  1.0000
  H   H29       1.0  0.33198200659229965  0.7545949963172303  0.7440036705594917  1.0000
  H   H30       1.0  0.6680179935209485  0.25459499643862976  0.7559963296251422  1.0000
  H   H31       1.0  0.6680179940702389  0.24540500343997065  0.25599632958684104  1.0000
  H   H32       1.0  0.3319820071415901  0.7454050044119497  0.2440036705211906  1.0000
  C   C1        1.0  0.10089667540669042  0.8931987222131882  0.45836215726668317  1.0000
  C   C2        1.0  0.8991033245151302  0.3931987223345877  0.04163784283974326  1.0000
  C   C3        1.0  0.8991033252558481  0.10680127754401277  0.5416378428796497  1.0000
  C   C4        1.0  0.1008966748574  0.6068012774226132  0.9583621573049841  1.0000
  C   C5        1.0  0.16345748744966465  0.955428194657024  0.5343521478747825  1.0000
  C   C6        1.0  0.8365425126635836  0.4554281947784236  0.9656478523098515  1.0000
  C   C7        1.0  0.8365425132128739  0.04457180510017679  0.4656478522715503  1.0000
  C   C8        1.0  0.16345748670894666  0.5445718049787773  0.03435214783487615  1.0000
  C   C9        1.0  0.06360321331360944  0.047535504897496195  0.5756610006673331  1.0000
  C   C10       1.0  0.9363967867996387  0.5475355047760967  0.9243389995173009  1.0000
  C   C11       1.0  0.9363967860589207  0.9524644948597046  0.4243389994773945  1.0000
  C   C12       1.0  0.06360321386289983  0.45246449498110425  0.0756610006290319  1.0000
  C   C13       1.0  0.19488800734190312  0.5443600864417163  0.6475408860280065  1.0000
  C   C14       1.0  0.805111992771345  0.044360086563115825  0.8524591141566275  1.0000
  C   C15       1.0  0.805111992030627  0.4556399133154846  0.352459114116721  1.0000
  C   C16       1.0  0.19488800789119354  0.955639913194085  0.14754088598970544  1.0000
  C   C17       1.0  0.182035167465552  0.4624966267056241  0.5795124186598842  1.0000
  C   C18       1.0  0.817964832647696  0.9624966265842245  0.9204875815247496  1.0000
  C   C19       1.0  0.8179648319069781  0.5375033730515768  0.4204875814848433  1.0000
  C   C20       1.0  0.18203516801484243  0.03750337317297638  0.07951241862158316  1.0000
  C   C21       1.0  0.32646242142975607  0.38799413997421445  0.5531095667548978  1.0000
  C   C22       1.0  0.6735375786834921  0.8879941398528148  0.9468904334297361  1.0000
  C   C23       1.0  0.6735375779427741  0.6120058597829865  0.44689043338982976  1.0000
  C   C24       1.0  0.3264624219790464  0.112005859904386  0.05310956671659666  1.0000
  C   C25       1.0  0.48093458567227254  0.3963128185345048  0.5965526781823605  1.0000
  C   C26       1.0  0.5190654144409756  0.8963128184131052  0.9034473220022735  1.0000
  C   C27       1.0  0.5190654137002576  0.6036871823160747  0.40344732196236704  1.0000
  C   C28       1.0  0.48093458622156293  0.10368718243747418  0.09655267814405931  1.0000
  C   C29       1.0  0.4877971620349422  0.4787869826578697  0.6649240855140996  1.0000
  C   C30       1.0  0.5122028380783059  0.9787869825364702  0.8350759146705343  1.0000
  C   C31       1.0  0.5122028386275963  0.5212130170993312  0.33507591463223324  1.0000
  C   C32       1.0  0.48779716129422424  0.021213017220730733  0.16492408547419324  1.0000
  C   C33       1.0  0.3554215823875949  0.6404626704453312  0.7605621603494009  1.0000
  C   C34       1.0  0.6445784177256532  0.1404626705667308  0.739437839835233  1.0000
  C   C35       1.0  0.6445784182749437  0.3595373293118696  0.23943783979693187  1.0000
  C   C36       1.0  0.355421581646877  0.85953732919047  0.26056216030949453  1.0000
  N   N1        1.0  0.3463761144677785  0.5509450482536101  0.6889939584463729  1.0000
  N   N2        1.0  0.6536238856454697  0.05094504837500966  0.811006041738261  1.0000
  N   N3        1.0  0.65362388619476  0.4490549525969693  0.31100604169995993  1.0000
  N   N4        1.0  0.3463761137270605  0.9490549524755697  0.18899395840646646  1.0000
  O   O1        1.0  0.17498637289180702  0.7896692421336025  0.42706929644665803  1.0000
  O   O2        1.0  0.8250136270300135  0.28966924225500196  0.0729307036597684  1.0000
  O   O3        1.0  0.8250136277707315  0.21033075762359846  0.5729307036996748  1.0000
  O   O4        1.0  0.17498637234251668  0.7103307575021989  0.9270692964849592  1.0000
  Br  Br1       1.0  0.3793881158676006  0.8853644322061637  0.573748580770998  1.0000
  Br  Br2       1.0  0.6206118842136102  0.38536443232756323  0.9262514188262562  1.0000
  Br  Br3       1.0  0.6206118847629006  0.11463556864441572  0.426251418787955  1.0000
  Br  Br4       1.0  0.37938811515892  0.6146355685230162  0.07374858131847142  1.0000
  Br  Br5       1.0  0.12695932751237662  0.12081647242312955  0.6768900709182373  1.0000
  Br  Br6       1.0  0.8730406726008715  0.62081647230173  0.8231099292663966  1.0000
  Br  Br7       1.0  0.873040673150162  0.8791835273340713  0.3231099292280955  1.0000
  Br  Br8       1.0  0.12695932677165866  0.3791835274554709  0.17689007087833095  1.0000
  I   I1        1.0  0.22468155393517428  0.2184490997172524  0.35117743519420486  1.0000
  I   I2        1.0  0.7753184459866462  0.7184490995958529  0.14882256491222162  1.0000
  I   I3        1.0  0.775318445437356  0.7815509011333269  0.6488225649505227  1.0000
  I   I4        1.0  0.22468155467589226  0.28155090016134804  0.8511774352341113  1.0000
