data_image0
_chemical_formula_structural       H36C36N8O4Br8I4
_chemical_formula_sum              "H36 C36 N8 O4 Br8 I4"
_cell_length_a       6.961881404276544
_cell_length_b       12.621428435024049
_cell_length_c       14.906236598034104
_cell_angle_alpha    80.32074265879919
_cell_angle_beta     77.94244005616625
_cell_angle_gamma    76.84245985111858

_space_group_name_H-M_alt    "P 1"
_space_group_IT_number       1

loop_
  _space_group_symop_operation_xyz
  'x, y, z'

loop_
  _atom_site_type_symbol
  _atom_site_label
  _atom_site_symmetry_multiplicity
  _atom_site_fract_x
  _atom_site_fract_y
  _atom_site_fract_z
  _atom_site_occupancy
  H   H1        1.0  0.8177721838850776  0.9065409116780575  0.6591500473073801  1.0000
  H   H2        1.0  0.1822278157741455  0.09345908864642344  0.34084995251913874  1.0000
  H   H3        1.0  0.6618535739780526  0.03131954936377751  0.6876196711440544  1.0000
  H   H4        1.0  0.3381464260187783  0.9686804501471605  0.3123803286816665  1.0000
  H   H5        1.0  0.8742562405560992  0.9267546497608907  0.3351575860079559  1.0000
  H   H6        1.0  0.12574375884009825  0.07324535045878591  0.664842414510122  1.0000
  H   H7        1.0  0.9131787592120242  0.8640347505869275  0.49825849127715555  1.0000
  H   H8        1.0  0.08682124188379493  0.13596524973863616  0.5017415085479022  1.0000
  H   H9        1.0  0.5270288915937067  0.172676773769954  0.5684933689036313  1.0000
  H   H10       1.0  0.47297110840312395  0.827323225740984  0.4315066309220896  1.0000
  H   H11       1.0  0.5082075309068611  0.22308906627529973  0.4036137641925477  1.0000
  H   H12       1.0  0.4917924705265658  0.776910933236721  0.5963862356317121  1.0000
  H   H13       1.0  0.5389038658721517  0.17432293484101202  0.26159187219845964  1.0000
  H   H14       1.0  0.4610961341246793  0.825677064669926  0.7384081276272613  1.0000
  H   H15       1.0  0.6755462768114668  0.042646828890990904  0.2327966226091744  1.0000
  H   H16       1.0  0.3244537231853639  0.9573531706199471  0.7672033772165465  1.0000
  H   H17       1.0  0.806503855043341  0.15053126755776264  0.23054812199190655  1.0000
  H   H18       1.0  0.19349614461588216  0.8494687327667183  0.7694518778346123  1.0000
  H   H19       1.0  0.2282475903911948  0.5197023875540766  0.7756912309243812  1.0000
  H   H20       1.0  0.7717524093426104  0.4802976118520571  0.22430876959289886  1.0000
  H   H21       1.0  0.3181367216644919  0.38229658722408333  0.8174467830594647  1.0000
  H   H22       1.0  0.6818632779947312  0.6177034131003976  0.18255321676705422  1.0000
  H   H23       1.0  0.31174169725063183  0.39775755787047845  0.1355394463686124  1.0000
  H   H24       1.0  0.6882583024085911  0.6022424424540026  0.8644605534579065  1.0000
  H   H25       1.0  0.36197468064352295  0.3315506204124573  0.9836745454753328  1.0000
  H   H26       1.0  0.6380253187526747  0.6684493798072193  0.016325455042745077  1.0000
  H   H27       1.0  0.15097138083278805  0.6679176997223781  0.8687653173824741  1.0000
  H   H28       1.0  0.849028618826435  0.3320823006021027  0.13123468244404476  1.0000
  H   H29       1.0  0.1146941268540961  0.7210707723503204  0.025918370665253782  1.0000
  H   H30       1.0  0.8853058731427348  0.27892922716061763  0.9740816291604671  1.0000
  H   H31       1.0  0.2146003241673858  0.5271380314480588  0.22804727703196956  1.0000
  H   H32       1.0  0.7853996754918376  0.472861968876422  0.7719527227945493  1.0000
  H   H33       1.0  0.04146498206071383  0.6487121698879984  0.19442592292913036  1.0000
  H   H34       1.0  0.9585350190351053  0.35128783043756523  0.8055740768959274  1.0000
  H   H35       1.0  0.3034138614335075  0.6489144014957176  0.17252830389873278  1.0000
  H   H36       1.0  0.6965861385633234  0.3510855980152205  0.8274716959269881  1.0000
  C   C1        1.0  0.8838933965099415  0.6110425967465795  0.4839906789687586  1.0000
  C   C2        1.0  0.11610660458587767  0.3889574035789842  0.5160093208562994  1.0000
  C   C3        1.0  0.7936739590096632  0.5220140007379929  0.5450846163262022  1.0000
  C   C4        1.0  0.20632604098716767  0.4779859987729451  0.4549153834995186  1.0000
  C   C5        1.0  0.8986878242111179  0.41764220979717964  0.5559115934948583  1.0000
  C   C6        1.0  0.10131217552268758  0.582357789608954  0.44408840702242164  1.0000
  C   C7        1.0  0.44716188809449514  0.900416854290366  0.9852231697984764  1.0000
  C   C8        1.0  0.5528381116393101  0.09958314511576781  0.014776830718803615  1.0000
  C   C9        1.0  0.6400258308867502  0.9321474826251482  0.9385382335743107  1.0000
  C   C10       1.0  0.35997417020906886  0.06785251770041532  0.061461766250747195  1.0000
  C   C11       1.0  0.686509147242192  0.0273811292718399  0.9485408320991303  1.0000
  C   C12       1.0  0.31349085241703123  0.972618871052641  0.05145916772738858  1.0000
  C   C13       1.0  0.8062364505681258  0.9787419578316363  0.38933902635879947  1.0000
  C   C14       1.0  0.19376355052769317  0.021258042493927164  0.6106609734662584  1.0000
  C   C15       1.0  0.8258780839568355  0.945283439756062  0.47994844651547364  1.0000
  C   C16       1.0  0.17412191570238755  0.054716560568418955  0.5200515533110452  1.0000
  C   C17       1.0  0.7273693799849403  0.01405103563805385  0.5489252251493919  1.0000
  C   C18       1.0  0.27263062001189065  0.9859489638728842  0.451074774676329  1.0000
  C   C19       1.0  0.6118094106227385  0.11677124154117739  0.5194142472210693  1.0000
  C   C20       1.0  0.3881905890364846  0.8832287587833035  0.4805857526054495  1.0000
  C   C21       1.0  0.5989251098571892  0.1456381701401495  0.42782586076119417  1.0000
  C   C22       1.0  0.40107488980203393  0.8543618301843314  0.5721741390653247  1.0000
  C   C23       1.0  0.6779386490938906  0.11370546298299199  0.26567629077944804  1.0000
  C   C24       1.0  0.3220613520019287  0.8862945373425716  0.7343237090456098  1.0000
  C   C25       1.0  0.28172900734585404  0.4538952805432695  0.07387289122186329  1.0000
  C   C26       1.0  0.7182709920503436  0.5461047196764072  0.9261271092962148  1.0000
  C   C27       1.0  0.3067598152548817  0.41852575733620073  0.9893312765749573  1.0000
  C   C28       1.0  0.6932401844043413  0.5814742429882802  0.0106687232515615  1.0000
  C   C29       1.0  0.2594113825110135  0.4944507342658393  0.9113949658200069  1.0000
  C   C30       1.0  0.7405886171482098  0.5055492660586416  0.08860503400651189  1.0000
  C   C31       1.0  0.18947416888934573  0.6061912463478413  0.9260805497438692  1.0000
  C   C32       1.0  0.8105258307698773  0.3938087539766396  0.07391945008264966  1.0000
  C   C33       1.0  0.1666314259997894  0.6363072949120155  0.012242901511175559  1.0000
  C   C34       1.0  0.8333685736594338  0.36369270541246534  0.9877570983153434  1.0000
  C   C35       1.0  0.19177613559980078  0.5988008434130646  0.1759081309132313  1.0000
  C   C36       1.0  0.8082238652329927  0.40119915680769463  0.8240918696033858  1.0000
  N   N1        1.0  0.6938491940951197  0.07809924512556123  0.36310474028410955  1.0000
  N   N2        1.0  0.30615080556410357  0.9219007551989197  0.6368952595424094  1.0000
  N   N3        1.0  0.7411267003650086  0.9827900769136562  0.6385146257434869  1.0000
  N   N4        1.0  0.2588733007308104  0.017209923411907302  0.361485374081571  1.0000
  N   N5        1.0  0.2117697821995253  0.56137637448431  0.08579523480530798  1.0000
  N   N6        1.0  0.7882302188962939  0.43862362584125364  0.9142047650197498  1.0000
  N   N7        1.0  0.28027934397826537  0.4635548263007511  0.8276369216942705  1.0000
  N   N8        1.0  0.7197206556809579  0.5364451740237298  0.17236307813224833  1.0000
  O   O1        1.0  0.7819387320477516  0.7016782129205037  0.4632343214170188  1.0000
  O   O2        1.0  0.21806126768605347  0.29832178648562996  0.5367656791002613  1.0000
  O   O3        1.0  0.39667699696659964  0.8203521068582308  0.9662918593166816  1.0000
  O   O4        1.0  0.603323003866194  0.17964789336252857  0.03370814119993531  1.0000
  Br  Br1       1.0  0.5221067800370902  0.5640454726814059  0.5998758097515812  1.0000
  Br  Br2       1.0  0.47789321935910734  0.4359545275382708  0.40012419076649686  1.0000
  Br  Br3       1.0  0.7831368727259777  0.30281955935821886  0.6279732161055855  1.0000
  Br  Br4       1.0  0.21686312836984153  0.697180440967345  0.37202678371947234  1.0000
  Br  Br5       1.0  0.7976962265107489  0.8371066499379175  0.8533330190622317  1.0000
  Br  Br6       1.0  0.20230377322305632  0.16289334946821615  0.14666698145504828  1.0000
  Br  Br7       1.0  0.9225952212247178  0.0764156761737797  0.8857784317791914  1.0000
  Br  Br8       1.0  0.07740477877211309  0.9235843233371583  0.1142215680465295  1.0000
  I   I1        1.0  0.3656350069835546  0.1810391169796589  0.7912294991470298  1.0000
  I   I2        1.0  0.634364992412643  0.8189608832400176  0.20877050137104827  1.0000
  I   I3        1.0  0.0066637796196649945  0.6816240741915794  0.6808965058650952  1.0000
  I   I4        1.0  0.9933362200395581  0.3183759261329015  0.3191034939614237  1.0000
