data_image0
_chemical_formula_structural       H64C72N8O8Br16I8
_chemical_formula_sum              "H64 C72 N8 O8 Br16 I8"
_cell_length_a       15.469899992146392
_cell_length_b       9.011061334492377
_cell_length_c       17.149502218382548
_cell_angle_alpha    90.0
_cell_angle_beta     92.27245660892861
_cell_angle_gamma    90.0

_space_group_name_H-M_alt    "P 1"
_space_group_IT_number       1

loop_
  _space_group_symop_operation_xyz
  'x, y, z'

loop_
  _atom_site_type_symbol
  _atom_site_label
  _atom_site_symmetry_multiplicity
  _atom_site_fract_x
  _atom_site_fract_y
  _atom_site_fract_z
  _atom_site_occupancy
  H   H1        1.0  0.5488730303609882  0.9915119860299247  0.6839627750602516  1.0000
  H   H2        1.0  0.451126969322788  0.4915119857243212  0.8160372251535896  1.0000
  H   H3        1.0  0.45112696949879083  0.008488014581282252  0.31603722513768484  1.0000
  H   H4        1.0  0.548873030536991  0.5084880148868857  0.18396277504434697  1.0000
  H   H5        1.0  0.5215390300014251  0.8476639872333411  0.560263094036826  1.0000
  H   H6        1.0  0.478460970309172  0.34766398692773764  0.9397369055987532  1.0000
  H   H7        1.0  0.47846097048517483  0.15233601337786581  0.43973690558284845  1.0000
  H   H8        1.0  0.5215390295308058  0.6523360125737221  0.060263094015640964  1.0000
  H   H9        1.0  0.37026972664107055  0.8409375409524809  0.5001394062988362  1.0000
  H   H10       1.0  0.6297302730427058  0.34093754064687737  0.9998605939150049  1.0000
  H   H11       1.0  0.6297302732187086  0.15906245854897888  0.4998605938991003  1.0000
  H   H12       1.0  0.3702697268170734  0.6590624588545824  0.00013940628293152468  1.0000
  H   H13       1.0  0.2518411031910724  0.9714366571330327  0.5708389839087424  1.0000
  H   H14       1.0  0.7481588964729025  0.4714366579371765  0.9291610157215565  1.0000
  H   H15       1.0  0.7481588966489052  0.028563342368426947  0.4291610157056518  1.0000
  H   H16       1.0  0.25184110338687676  0.5285633426740304  0.07083898447638003  1.0000
  H   H17       1.0  0.2899854748998267  0.11345522486753692  0.692025645097227  1.0000
  H   H18       1.0  0.7100145247641481  0.6134552251731404  0.8079743545330719  1.0000
  H   H19       1.0  0.7100145249401509  0.8865447746339228  0.3079743545171672  1.0000
  H   H20       1.0  0.2899854750758295  0.38654477543806653  0.19202564508132225  1.0000
  H   H21       1.0  0.38265109247854845  0.19347167722926287  0.7823675148603644  1.0000
  H   H22       1.0  0.6173489078320487  0.6934716764251191  0.7176324847752148  1.0000
  H   H23       1.0  0.6173489080080514  0.8065283233819441  0.21763248475931013  1.0000
  H   H24       1.0  0.38265109200792896  0.30652832307634054  0.2823675148391793  1.0000
  H   H25       1.0  0.49135615705358593  0.22017026256449995  0.7494855734883186  1.0000
  H   H26       1.0  0.5086438426301904  0.7201702628701034  0.7505144267255227  1.0000
  H   H27       1.0  0.5086438428061931  0.7798297369369598  0.25051442670961793  1.0000
  H   H28       1.0  0.4913561572295888  0.2798297366313563  0.24948557347241387  1.0000
  H   H29       1.0  0.465479852450935  0.062472083931466464  0.8082351449223828  1.0000
  H   H30       1.0  0.5345201478794636  0.56247208423707  0.6917648552967387  1.0000
  H   H31       1.0  0.5345201480554663  0.9375279155699933  0.19176485528083403  1.0000
  H   H32       1.0  0.46547985198031555  0.437527916374137  0.30823514490119774  1.0000
  H   H33       1.0  0.1981577385647841  0.5997145696161693  0.8914442012588144  1.0000
  H   H34       1.0  0.8018422611189923  0.09971456931056584  0.6085557989550269  1.0000
  H   H35       1.0  0.801842261294995  0.4002854298852904  0.10855579893912218  1.0000
  H   H36       1.0  0.19815773874078693  0.9002854301908938  0.39144420124290963  1.0000
  H   H37       1.0  0.1590703239960823  0.42759202684053815  0.0029601416938923974  1.0000
  H   H38       1.0  0.8409296760396996  0.9275920271461416  0.49703985848813936  1.0000
  H   H39       1.0  0.8409296758636968  0.5724079726609216  0.9970398585040441  1.0000
  H   H40       1.0  0.15907032382007952  0.07240797235531812  0.5029601417097972  1.0000
  H   H41       1.0  0.021794153378543117  0.2861480412002162  0.9920583938382233  1.0000
  H   H42       1.0  0.9782058469320539  0.7861480403960724  0.507941605797356  1.0000
  H   H43       1.0  0.9782058464812361  0.7138519594109907  0.007941606359713327  1.0000
  H   H44       1.0  0.021794153554545934  0.21385195910538723  0.4920583938223184  1.0000
  H   H45       1.0  0.9240646496877811  0.3189242790967967  0.8737798312758193  1.0000
  H   H46       1.0  0.07593535064261747  0.8189242794024002  0.6262201689433022  1.0000
  H   H47       1.0  0.07593535017199804  0.6810757215144102  0.12622016892211718  1.0000
  H   H48       1.0  0.924064649863784  0.18107572120880677  0.3737798312599146  1.0000
  H   H49       1.0  0.9713804450679371  0.4925576461243823  0.7669999777606816  1.0000
  H   H50       1.0  0.02861955461583926  0.9925576464299858  0.7330000224531595  1.0000
  H   H51       1.0  0.028619554791842076  0.5074423544868247  0.23300002243725482  1.0000
  H   H52       1.0  0.9713804452439398  0.007442354181221198  0.266999977744777  1.0000
  H   H53       1.0  0.1697321214400478  0.7017361801539904  0.7779457061872181  1.0000
  H   H54       1.0  0.830267878223927  0.20173617984838696  0.7220542934430808  1.0000
  H   H55       1.0  0.8302678783999299  0.2982638204572165  0.22205429342717606  1.0000
  H   H56       1.0  0.1697321216160506  0.79826382076282  0.27794570617131337  1.0000
  H   H57       1.0  0.05559996912983756  0.7341316005338967  0.7605030898115396  1.0000
  H   H58       1.0  0.9444000305341373  0.23413160133804042  0.7394969098187593  1.0000
  H   H59       1.0  0.9444000307101401  0.265868398967563  0.23949690980285454  1.0000
  H   H60       1.0  0.05559996930584039  0.7658683992731665  0.2605030897956349  1.0000
  H   H61       1.0  0.10916910661190551  0.5867355712874903  0.7097475405935065  1.0000
  H   H62       1.0  0.8908308930718708  0.08673557098188689  0.7902524596203347  1.0000
  H   H63       1.0  0.8908308932478737  0.41326442821396936  0.29025245960443  1.0000
  H   H64       1.0  0.10916910678790834  0.9132644285195729  0.20974754057760178  1.0000
  C   C1        1.0  0.6893038018730142  0.8615225911607147  0.043638428308844  1.0000
  C   C2        1.0  0.31069619816276783  0.36152259196485836  0.4563615718731878  1.0000
  C   C3        1.0  0.310696197986765  0.13847740834074507  0.9563615718890925  1.0000
  C   C4        1.0  0.6893038016970113  0.6384774086463485  0.5436384283247487  1.0000
  C   C5        1.0  0.6600047853237611  0.9254301930095308  0.9673284343849657  1.0000
  C   C6        1.0  0.33999521500663754  0.4254301927039273  0.5326715658341559  1.0000
  C   C7        1.0  0.33999521518264036  0.07456980760167618  0.0326715658182511  1.0000
  C   C8        1.0  0.6600047848531416  0.5745698067975324  0.46732843436378063  1.0000
  C   C9        1.0  0.7112605734731916  0.017659607907769773  0.9271597905375357  1.0000
  C   C10       1.0  0.28873942685720694  0.5176596082133732  0.5728402096815858  1.0000
  C   C11       1.0  0.28873942638658745  0.98234039159369  0.0728402096604008  1.0000
  C   C12       1.0  0.7112605736491945  0.4823403912880865  0.42715979052163094  1.0000
  C   C13       1.0  0.7936853645391926  0.07653356185249517  0.9632559212673301  1.0000
  C   C14       1.0  0.20631463579120593  0.5765335621580986  0.5367440789517915  1.0000
  C   C15       1.0  0.20631463596720873  0.9234664376489646  0.03674407893588684  1.0000
  C   C16       1.0  0.7936853640685733  0.4234664373433611  0.463255921246145  1.0000
  C   C17       1.0  0.824948704596165  0.006879894354141847  0.03771452860599918  1.0000
  C   C18       1.0  0.1750512954198155  0.5068798946597454  0.46228547099249023  1.0000
  C   C19       1.0  0.1750512952438127  0.993120105147318  0.9622854710083949  1.0000
  C   C20       1.0  0.8249487044201621  0.49312010595146166  0.5377145286219039  1.0000
  C   C21       1.0  0.7741683769688347  0.9128963475714048  0.0770466607891682  1.0000
  C   C22       1.0  0.22583162306694737  0.4128963472658014  0.42295333939286356  1.0000
  C   C23       1.0  0.22583162289094455  0.0871036519300549  0.9229533394087683  1.0000
  C   C24       1.0  0.774168377439454  0.5871036522356584  0.5770466608103532  1.0000
  C   C25       1.0  0.48483193456400975  0.9823245022334154  0.6558410779558055  1.0000
  C   C26       1.0  0.5151680657465872  0.4823245019278119  0.8441589216797737  1.0000
  C   C27       1.0  0.5151680652759679  0.017675498377791532  0.34415892165858875  1.0000
  C   C28       1.0  0.48483193474001257  0.517675498683395  0.15584107793990074  1.0000
  C   C29       1.0  0.4683438367791661  0.9052367648166184  0.5870059369338386  1.0000
  C   C30       1.0  0.531656163531431  0.40523676562076216  0.9129940627017405  1.0000
  C   C31       1.0  0.5316561630608115  0.09476323468484125  0.41299406268055555  1.0000
  C   C32       1.0  0.4683438369551689  0.5947632349904447  0.08700593691793396  1.0000
  C   C33       1.0  0.38423528280994274  0.9010965932413573  0.5545928261184521  1.0000
  C   C34       1.0  0.6157647168540321  0.4010965929357539  0.9454071735118468  1.0000
  C   C35       1.0  0.6157647170498365  0.0989034062601024  0.4454071740794845  1.0000
  C   C36       1.0  0.38423528298594556  0.598903406565706  0.05459282610254735  1.0000
  C   C37       1.0  0.3187355388958097  0.9746949880787575  0.5925866552575985  1.0000
  C   C38       1.0  0.6812644607681652  0.47469498777315405  0.9074133443727005  1.0000
  C   C39       1.0  0.6812644609441679  0.02530501142270223  0.4074133443567957  1.0000
  C   C40       1.0  0.3187355390718125  0.5253050117283057  0.09258665524169372  1.0000
  C   C41       1.0  0.33821251632820215  0.051844340267862284  0.6607607975256172  1.0000
  C   C42       1.0  0.6617874839823948  0.5518443405734658  0.839239202109962  1.0000
  C   C43       1.0  0.6617874841583977  0.9481556592335973  0.3392392020940572  1.0000
  C   C44       1.0  0.3382125158575827  0.44815566003774115  0.1607607975044322  1.0000
  C   C45       1.0  0.4410612890642047  0.13897719186599544  0.7627644744036085  1.0000
  C   C46       1.0  0.5589387106195716  0.6389771921715989  0.7372355258102326  1.0000
  C   C47       1.0  0.5589387107955744  0.8610228076354643  0.23723552579432788  1.0000
  C   C48       1.0  0.44106128924020754  0.36102280843960805  0.2627644743877039  1.0000
  C   C49       1.0  0.13870223379402083  0.5344362457689665  0.8915797058692542  1.0000
  C   C50       1.0  0.8612977658897555  0.03443624546336312  0.608420294344587  1.0000
  C   C51       1.0  0.8612977660657584  0.4655637537324931  0.10842029432868235  1.0000
  C   C52       1.0  0.13870223397002365  0.9655637540380966  0.39157970585334945  1.0000
  C   C53       1.0  0.11647706138056259  0.4405334280441478  0.9513945333679459  1.0000
  C   C54       1.0  0.8835229389300344  0.9405334272400042  0.5486054662676333  1.0000
  C   C55       1.0  0.883522938459415  0.5594665725670591  0.04860546624644834  1.0000
  C   C56       1.0  0.1164770615565654  0.05946657226145566  0.45139453335204116  1.0000
  C   C57       1.0  0.03931794074223739  0.36080260241433054  0.9452946961906631  1.0000
  C   C58       1.0  0.9606820589415389  0.860802602719934  0.5547053040231783  1.0000
  C   C59       1.0  0.9606820591175417  0.6391973981968764  0.05470530400727353  1.0000
  C   C60       1.0  0.03931794091824021  0.13919739789127292  0.4452946961747583  1.0000
  C   C61       1.0  0.9853044210463341  0.37780906639359646  0.8790422891712373  1.0000
  C   C62       1.0  0.01469557863744223  0.8778090666991999  0.620957711042604  1.0000
  C   C63       1.0  0.01469557881344505  0.6221909331078633  0.12095771102669932  1.0000
  C   C64       1.0  0.985304421222337  0.12219093280225986  0.3790422891553325  1.0000
  C   C65       1.0  0.009829844193653138  0.47273336867592974  0.8204533653671761  1.0000
  C   C66       1.0  0.9901701554901232  0.9727333678717859  0.6795466348466652  1.0000
  C   C67       1.0  0.990170155666126  0.5272666319352772  0.17954663483076047  1.0000
  C   C68       1.0  0.009829844369655954  0.02726663162967375  0.32045336535127134  1.0000
  C   C69       1.0  0.10693287149255962  0.6501720954416345  0.7643574012702263  1.0000
  C   C70       1.0  0.8930671281912166  0.15017209513603105  0.735642598943615  1.0000
  C   C71       1.0  0.8930671283672195  0.34982790516957246  0.2356425989277102  1.0000
  C   C72       1.0  0.10693287166856244  0.8498279043654288  0.2643574012543216  1.0000
  N   N1        1.0  0.4201834570897358  0.054449048984043964  0.6912394942470557  1.0000
  N   N2        1.0  0.5798165425940406  0.5544490492896474  0.8087605059667855  1.0000
  N   N3        1.0  0.5798165427700434  0.9455509505174159  0.3087605059508809  1.0000
  N   N4        1.0  0.42018345726573864  0.44555095132155953  0.19123949423115094  1.0000
  N   N5        1.0  0.08556920674724944  0.5480618993343263  0.8273794444264915  1.0000
  N   N6        1.0  0.9144307929365268  0.04806189902872272  0.6726205557873498  1.0000
  N   N7        1.0  0.9144307931125296  0.45193810016713354  0.17262055577144506  1.0000
  N   N8        1.0  0.08556920692325226  0.951938100472737  0.32737944441058675  1.0000
  O   O1        1.0  0.6470164647524907  0.7654305229949421  0.07655928976363198  1.0000
  O   O2        1.0  0.35298353528329124  0.26543052268933853  0.4234407104183998  1.0000
  O   O3        1.0  0.3529835351072884  0.23456947650651777  0.9234407104343044  1.0000
  O   O4        1.0  0.6470164645764879  0.7345694768121211  0.5765592897795367  1.0000
  O   O5        1.0  0.829781312328731  0.18629000044361202  0.9364365565393262  1.0000
  O   O6        1.0  0.17021868735504533  0.6862900007492154  0.563563443674515  1.0000
  O   O7        1.0  0.17021868753104816  0.8137099990578478  0.06356344365861029  1.0000
  O   O8        1.0  0.8297813125047337  0.31370999875224426  0.43643655652342156  1.0000
  Br  Br1       1.0  0.5492216683542342  0.8631850035496593  0.9281931985500643  1.0000
  Br  Br2       1.0  0.4507783313097406  0.36318500324405584  0.5718068010802346  1.0000
  Br  Br3       1.0  0.45077833148574337  0.13681499595180044  0.07180680106432989  1.0000
  Br  Br4       1.0  0.549221668530237  0.6368149962574039  0.42819319853415955  1.0000
  Br  Br5       1.0  0.6808474451847248  0.09528871773553085  0.827130979791302  1.0000
  Br  Br6       1.0  0.31915255514567376  0.5952887180411343  0.6728690204278195  1.0000
  Br  Br7       1.0  0.3191525546750544  0.904711281765929  0.17286902040663452  1.0000
  Br  Br8       1.0  0.6808474453607276  0.4047112814603254  0.32713097977539735  1.0000
  Br  Br9       1.0  0.9329668054751065  0.07611673525898141  0.07940255437294394  1.0000
  Br  Br10      1.0  0.06703319456067541  0.5761167355645849  0.42059744580908787  1.0000
  Br  Br11      1.0  0.0670331943846726  0.9238832642424784  0.9205974458249926  1.0000
  Br  Br12      1.0  0.9329668052991037  0.42388326393687487  0.5794025543888487  1.0000
  Br  Br13      1.0  0.8074452459462251  0.8366214566915594  0.17703875853797288  1.0000
  Br  Br14      1.0  0.19255475408955677  0.336621456385956  0.3229612416440589  1.0000
  Br  Br15      1.0  0.19255475391355395  0.16337854280990027  0.8229612416599636  1.0000
  Br  Br16      1.0  0.8074452457702224  0.6633785431155038  0.6770387585538775  1.0000
  I   I1        1.0  0.348314745528688  0.7734963597817576  0.8483922622055703  1.0000
  I   I2        1.0  0.6516852548017105  0.27349635947615414  0.6516077380135512  1.0000
  I   I3        1.0  0.651685254331091  0.22650364082944938  0.15160773799236624  1.0000
  I   I4        1.0  0.34831474570469084  0.7265036400253057  0.34839226218966557  1.0000
  I   I5        1.0  0.1242232720000803  0.21621356771175002  0.14563512635263495  1.0000
  I   I6        1.0  0.8757767280357016  0.7162135680173535  0.3543648738293969  1.0000
  I   I7        1.0  0.8757767278596988  0.7837864317897096  0.8543648738453015  1.0000
  I   I8        1.0  0.12422327182407748  0.28378643148410626  0.6456351263685397  1.0000
