data_image0
_chemical_formula_structural       H68C28N12O12Cl4
_chemical_formula_sum              "H68 C28 N12 O12 Cl4"
_cell_length_a       9.615362429170977
_cell_length_b       8.35936331606292
_cell_length_c       14.582480152712153
_cell_angle_alpha    90.0
_cell_angle_beta     99.24787752626081
_cell_angle_gamma    90.0

_space_group_name_H-M_alt    "P 1"
_space_group_IT_number       1

loop_
  _space_group_symop_operation_xyz
  'x, y, z'

loop_
  _atom_site_type_symbol
  _atom_site_label
  _atom_site_symmetry_multiplicity
  _atom_site_fract_x
  _atom_site_fract_y
  _atom_site_fract_z
  _atom_site_occupancy
  H   H1        1.0  0.22115485159420248  0.18639020952780325  0.49993794645328754  1.0000
  H   H2        1.0  0.2788451481027871  0.686390208567029  6.205329455719749e-05  1.0000
  H   H3        1.0  0.7788451488346326  0.8136097909431752  0.5000620530229578  1.0000
  H   H4        1.0  0.7211548514895666  0.31360979070768596  0.9999379468956451  1.0000
  H   H5        1.0  0.11946562425999763  0.12406931973001871  0.5864927959244742  1.0000
  H   H6        1.0  0.380534375484455  0.624069319965508  0.9135072040229615  1.0000
  H   H7        1.0  0.8805343751339814  0.8759306807409596  0.4135072035712153  1.0000
  H   H8        1.0  0.6194656241078985  0.3759306805054705  0.08649279616724084  1.0000
  H   H9        1.0  0.3160378642578954  0.34572655365350874  0.7656846568653698  1.0000
  H   H10       1.0  0.18396213548655732  0.8457265526927346  0.7343153430820659  1.0000
  H   H11       1.0  0.6839621353344584  0.6542734468174697  0.23431534332483248  1.0000
  H   H12       1.0  0.8160378641057964  0.15427344658198044  0.26568465710813655  1.0000
  H   H13       1.0  0.1713646342548228  0.2087961204708168  0.7313747709753519  1.0000
  H   H14       1.0  0.32863536548962985  0.7087961207063059  0.7686252289720839  1.0000
  H   H15       1.0  0.8286353653375308  0.7912038788038983  0.26862522921485044  1.0000
  H   H16       1.0  0.6713646351375799  0.2912038797646724  0.23137477119867444  1.0000
  H   H17       1.0  0.41611032832415257  0.3501593972324923  0.5446178003458652  1.0000
  H   H18       1.0  0.08388967142030013  0.8501593974679815  0.9553821996015706  1.0000
  H   H19       1.0  0.5838896712682012  0.6498406020422227  0.4553821998443373  1.0000
  H   H20       1.0  0.9161103279736789  0.14984060300299692  0.04461779989411889  1.0000
  H   H21       1.0  0.4494711706509552  0.4242334799811334  0.6590869876798254  1.0000
  H   H22       1.0  0.05052882909349749  0.9242334802166227  0.8409130122676104  1.0000
  H   H23       1.0  0.5505288299762545  0.5757665192935816  0.34091301249093287  1.0000
  H   H24       1.0  0.9494711704988562  0.07576652025435579  0.159086987922592  1.0000
  H   H25       1.0  0.07435372188665078  0.4653409886522416  0.3058054754234041  1.0000
  H   H26       1.0  0.4256462788451948  0.9653409888877308  0.1941945243049966  1.0000
  H   H27       1.0  0.9256462787405588  0.5346590106224735  0.6941945247473541  1.0000
  H   H28       1.0  0.5743537215836403  0.03465901038698427  0.8058054751712488  1.0000
  H   H29       1.0  0.10294904565006291  0.38094698598407356  0.41870686443797467  1.0000
  H   H30       1.0  0.39705095528015727  0.8809469862195628  0.08129313598493883  1.0000
  H   H31       1.0  0.8970509549771467  0.6190530132906414  0.5812931357327836  1.0000
  H   H32       1.0  0.6029490453470524  0.11905301425141564  0.9187068641858194  1.0000
  H   H33       1.0  0.22044715010537375  0.8860281722374478  0.40801410600723476  1.0000
  H   H34       1.0  0.2795528497899904  0.38602817319822197  0.09198589443512285  1.0000
  H   H35       1.0  0.7795528494869799  0.11397182703726726  0.5919858941829675  1.0000
  H   H36       1.0  0.7204471498023632  0.6139718272727565  0.9080141057550795  1.0000
  H   H37       1.0  0.20751140248928815  0.8817719796717254  0.5285616261143313  1.0000
  H   H38       1.0  0.2924885972551645  0.38177197943623614  0.9714383738331043  1.0000
  H   H39       1.0  0.7924885981379215  0.1182280196029897  0.4714383740564269  1.0000
  H   H40       1.0  0.7075114023371891  0.6182280198384789  0.028561626357097986  1.0000
  H   H41       1.0  0.17746117834367764  0.21379138606954504  0.28573951970133904  1.0000
  H   H42       1.0  0.32253882135331186  0.7137913851087708  0.2142604800465057  1.0000
  H   H43       1.0  0.8225388220851574  0.7862086144014334  0.7142604797749063  1.0000
  H   H44       1.0  0.6774611782390417  0.2862086141659442  0.7857395201436966  1.0000
  H   H45       1.0  0.31992220273768457  0.35340599975159204  0.28719408465152113  1.0000
  H   H46       1.0  0.18007779695930498  0.8534059999870812  0.2128059150963236  1.0000
  H   H47       1.0  0.6800777976911505  0.646593999523123  0.7128059148247242  1.0000
  H   H48       1.0  0.8199222026330487  0.14659400048389717  0.7871940850938788  1.0000
  H   H49       1.0  0.3942323362322803  0.024225282756985954  0.5668710212557921  1.0000
  H   H50       1.0  0.10576766454702836  0.5242252829924752  0.9331289786721995  1.0000
  H   H51       1.0  0.6057676643949294  0.9757747177139924  0.4331289789149661  1.0000
  H   H52       1.0  0.8942323358818066  0.47577471747850325  0.06687102080404592  1.0000
  H   H53       1.0  0.2039504423138182  0.5906499494420151  0.5307565079503483  1.0000
  H   H54       1.0  0.29604955743063444  0.09064994920652594  0.9692434919970873  1.0000
  H   H55       1.0  0.7960495572785355  0.40935005102896327  0.46924349223985407  1.0000
  H   H56       1.0  0.7039504421617191  0.9093500512644525  0.03075650819311501  1.0000
  H   H57       1.0  0.07178008331612333  0.671358706136868  0.44233846472381805  1.0000
  H   H58       1.0  0.4282199163808662  0.17135870590137872  0.05766153502402674  1.0000
  H   H59       1.0  0.9282199173110863  0.3286412943341105  0.5576615354469402  1.0000
  H   H60       1.0  0.5717800830131129  0.8286412945695997  0.9423384644716628  1.0000
  H   H61       1.0  0.48142362237032904  0.1621512809947352  0.3300571757012887  1.0000
  H   H62       1.0  0.018576377326660485  0.6621512812302244  0.16994282404655608  1.0000
  H   H63       1.0  0.51857637702365  0.8378487182799799  0.669942823794401  1.0000
  H   H64       1.0  0.9814236233005493  0.3378487180444907  0.8300571761242023  1.0000
  H   H65       1.0  0.36633036185576995  0.9997415992126134  0.34555916810704296  1.0000
  H   H66       1.0  0.13366963803959417  0.4997415989771243  0.15444083233531464  1.0000
  H   H67       1.0  0.6336696387714398  0.00025840125836489497  0.6544408320637153  1.0000
  H   H68       1.0  0.8663303615527594  0.5002584002975908  0.8455591678548876  1.0000
  C   C1        1.0  0.27533846281555296  0.28358149901737767  0.6290985670855407  1.0000
  C   C2        1.0  0.22466153692889967  0.7835814992528669  0.8709014328618949  1.0000
  C   C3        1.0  0.7246615367768007  0.7164185014536008  0.37090143310466167  1.0000
  C   C4        1.0  0.7753384626634539  0.21641850121811154  0.12909856732830735  1.0000
  C   C5        1.0  0.15739997557248353  0.4284493776120308  0.3634046860052708  1.0000
  C   C6        1.0  0.34260002432288056  0.9284493766512566  0.13659531443708678  1.0000
  C   C7        1.0  0.842600025054726  0.5715506228589476  0.6365953141654873  1.0000
  C   C8        1.0  0.6573999752694731  0.07155062262345842  0.8634046857531157  1.0000
  C   C9        1.0  0.2515069579392411  0.8188122122706982  0.4730424868088474  1.0000
  C   C10       1.0  0.24849304175774845  0.31881221203520904  0.02695751293899728  1.0000
  C   C11       1.0  0.7484930414547379  0.18118778820028014  0.526957512686842  1.0000
  C   C12       1.0  0.7515069578346051  0.6811877884357693  0.973042487251205  1.0000
  C   C13       1.0  0.2460310136519707  0.29968845177313064  0.32893205580204743  1.0000
  C   C14       1.0  0.25396898604501883  0.7996884520086199  0.17106794394579733  1.0000
  C   C15       1.0  0.753968986975239  0.7003115475015844  0.6710679443687108  1.0000
  C   C16       1.0  0.7460310133489603  0.20031154846235855  0.8289320555498921  1.0000
  C   C17       1.0  0.4700321458328611  0.9494628203022177  0.5370995132692652  1.0000
  C   C18       1.0  0.029967853911591517  0.449462821262992  0.9629004866781704  1.0000
  C   C19       1.0  0.5299678545959741  0.05053717897249726  0.46290048620698016  1.0000
  C   C20       1.0  0.9700321456807619  0.5505371792079865  0.03709951351203187  1.0000
  C   C21       1.0  0.18639114479473776  0.6542986580676607  0.4634512794569758  1.0000
  C   C22       1.0  0.3136088559371078  0.15429865783217162  0.0365487202714248  1.0000
  C   C23       1.0  0.8136088558324719  0.34570134120705426  0.5365487207137825  1.0000
  C   C24       1.0  0.6863911444917273  0.8457013414425435  0.9634512792048207  1.0000
  C   C25       1.0  0.4226280081334944  0.10390714306326988  0.3800273923739685  1.0000
  C   C26       1.0  0.07737199176186975  0.6039071432987592  0.1199726080683891  1.0000
  C   C27       1.0  0.5773719914588593  0.8960928562114451  0.6199726078162339  1.0000
  C   C28       1.0  0.9226280078304839  0.3960928571722193  0.8800273921218132  1.0000
  N   N1        1.0  0.1913263879078427  0.19976334164005258  0.564006721872556  1.0000
  N   N2        1.0  0.30867361183660996  0.6997633418755418  0.9359932780748796  1.0000
  N   N3        1.0  0.8086736114861364  0.8002366588309259  0.43599327762313356  1.0000
  N   N4        1.0  0.6913263877557436  0.30023665859543663  0.06400672211532261  1.0000
  N   N5        1.0  0.24692501768419794  0.28633439766885516  0.7160467824559676  1.0000
  N   N6        1.0  0.2530749830951108  0.7863343979043443  0.783953217472024  1.0000
  N   N7        1.0  0.7530749827446371  0.7136656028021232  0.28395321702027765  1.0000
  N   N8        1.0  0.7469250175320988  0.21366560256663406  0.2160467826987343  1.0000
  N   N9        1.0  0.3838894656876576  0.3673546122943612  0.6070402371614492  1.0000
  N   N10       1.0  0.11611053405679517  0.8673546125298505  0.8929597627859865  1.0000
  N   N11       1.0  0.6161105339046961  0.6326453869803539  0.3929597630287532  1.0000
  N   N12       1.0  0.8838894653371839  0.13264538794112796  0.10704023670970296  1.0000
  O   O1        1.0  0.32525901372037663  0.21675352314431715  0.40750997730262095  1.0000
  O   O2        1.0  0.17474098597661292  0.7167535233798064  0.09249002244522374  1.0000
  O   O3        1.0  0.6747409856736024  0.7832464761303979  0.5924900221930686  1.0000
  O   O4        1.0  0.8252590146505968  0.2832464758949087  0.9075099777255345  1.0000
  O   O5        1.0  0.24365308107099748  0.5626367872972348  0.39585288956604864  1.0000
  O   O6        1.0  0.2563469188243666  0.06263678706174551  0.10414711087630903  1.0000
  O   O7        1.0  0.7563469185213562  0.43736321317374366  0.6041471106241537  1.0000
  O   O8        1.0  0.7436530818028432  0.9373632122129695  0.8958528892944493  1.0000
  O   O9        1.0  0.4016761742515196  0.8077100665101872  0.4973449665592862  1.0000
  O   O10       1.0  0.09832382544546998  0.30771006627469794  0.002655033188558575  1.0000
  O   O11       1.0  0.5983238253408342  0.19228993396079128  0.5026550336309162  1.0000
  O   O12       1.0  0.901676174983365  0.6922899341962804  0.9973449662876868  1.0000
  Cl  Cl1       1.0  0.009779001614485913  0.009222314796614077  0.6877848636652221  1.0000
  Cl  Cl2       1.0  0.4902209981299668  0.5092223150321032  0.8122151362822135  1.0000
  Cl  Cl3       1.0  0.9902209990127239  0.9907776844781009  0.3122151365055362  1.0000
  Cl  Cl4       1.0  0.5097790014623869  0.4907776854388751  0.18778486390798874  1.0000
