data_image0
_chemical_formula_structural       H80C88N8O8S4
_chemical_formula_sum              "H80 C88 N8 O8 S4"
_cell_length_a       17.13868813675299
_cell_length_b       13.243295291881259
_cell_length_c       8.163445668627874
_cell_angle_alpha    90.0
_cell_angle_beta     94.52884415376408
_cell_angle_gamma    90.0

_space_group_name_H-M_alt    "P 1"
_space_group_IT_number       1

loop_
  _space_group_symop_operation_xyz
  'x, y, z'

loop_
  _atom_site_type_symbol
  _atom_site_label
  _atom_site_symmetry_multiplicity
  _atom_site_fract_x
  _atom_site_fract_y
  _atom_site_fract_z
  _atom_site_occupancy
  H   H1        1.0  0.09026707713439215  0.5909612469940062  0.47356124654343157  1.0000
  H   H2        1.0  0.9097329230279052  0.5909612469940062  0.026438753947641575  1.0000
  H   H3        1.0  0.590267076815135  0.0909612466874835  0.473561246305053  1.0000
  H   H4        1.0  0.4097329233471623  0.0909612466874835  0.026438754186020142  1.0000
  H   H5        1.0  0.9097329232410609  0.40903875286394015  0.5264387535980256  1.0000
  H   H6        1.0  0.09026707676224995  0.40903875286394015  0.9735612461017232  1.0000
  H   H7        1.0  0.4097329229750201  0.9090387531704628  0.5264387537443118  1.0000
  H   H8        1.0  0.5902670770282908  0.9090387531704628  0.973561245955437  1.0000
  H   H9        1.0  0.02322783388929759  0.6914465824539664  0.4261368240977559  1.0000
  H   H10       1.0  0.9767721662706418  0.6914465824539664  0.07386317516796333  1.0000
  H   H11       1.0  0.5232278335700404  0.19144658214744373  0.42613682385937734  1.0000
  H   H12       1.0  0.4767721660046011  0.19144658214744373  0.07386317531424953  1.0000
  H   H13       1.0  0.9767721659008577  0.3085534174039799  0.5738631759516089  1.0000
  H   H14       1.0  0.023227834104811253  0.3085534174039799  0.9261368249734938  1.0000
  H   H15       1.0  0.47677216621775687  0.8085534177105026  0.5738631749646336  1.0000
  H   H16       1.0  0.5232278337855542  0.8085534177105026  0.9261368247351153  1.0000
  H   H17       1.0  0.10343564322100912  0.7986640384349163  0.5341457455585081  1.0000
  H   H18       1.0  0.8965643567823017  0.7986640384349163  0.9658542541412405  1.0000
  H   H19       1.0  0.6034356434894079  0.2986640381283936  0.534145746637576  1.0000
  H   H20       1.0  0.396564356516261  0.2986640381283936  0.9658542542875267  1.0000
  H   H21       1.0  0.8965643565667881  0.20133596142303  0.46585425326550267  1.0000
  H   H22       1.0  0.10343564359315133  0.20133596142303  0.03414574600021661  1.0000
  H   H23       1.0  0.39656435688604524  0.7013359617295527  0.4658542535038812  1.0000
  H   H24       1.0  0.6034356432738942  0.7013359617295527  0.034145745761838035  1.0000
  H   H25       1.0  0.17889871016883446  0.9504648293779704  0.6175492314544132  1.0000
  H   H26       1.0  0.8211012898344764  0.9504648293779704  0.8824507682453357  1.0000
  H   H27       1.0  0.6788987104372333  0.45046482982654684  0.6175492325334807  1.0000
  H   H28       1.0  0.3211012895684356  0.45046482982654684  0.882450768391622  1.0000
  H   H29       1.0  0.8211012896213207  0.04953517047997587  0.38245076859495164  1.0000
  H   H30       1.0  0.17889871054097672  0.04953517047997587  0.11754923189612149  1.0000
  H   H31       1.0  0.32110128993821985  0.5495351707864985  0.3824507676079763  1.0000
  H   H32       1.0  0.6788987102217194  0.5495351707864985  0.1175492316577429  1.0000
  H   H33       1.0  0.28399434032794946  0.012512960433766774  0.4484918496322489  1.0000
  H   H34       1.0  0.7160056598343479  0.012512960433766774  0.051508150858824195  1.0000
  H   H35       1.0  0.7839943405939902  0.5125129599851904  0.4484918494859627  1.0000
  H   H36       1.0  0.21600565956830706  0.5125129599851904  0.0515081510051104  1.0000
  H   H37       1.0  0.7160056594622056  0.9874870401792786  0.5515081504171159  1.0000
  H   H38       1.0  0.2839943405411052  0.9874870401792786  0.948491849282633  1.0000
  H   H39       1.0  0.21600565978146286  0.48748703987275593  0.5515081506554943  1.0000
  H   H40       1.0  0.7839943402218481  0.48748703987275593  0.9484918490442544  1.0000
  H   H41       1.0  0.31665881547204466  0.9153543270632593  0.20142036319153456  1.0000
  H   H42       1.0  0.6833411846902527  0.9153543270632593  0.29857963729953857  1.0000
  H   H43       1.0  0.8166588151527875  0.4153543267567366  0.20142036295315596  1.0000
  H   H44       1.0  0.18334118500950983  0.4153543267567366  0.2985796375379171  1.0000
  H   H45       1.0  0.6833411849034084  0.08464567279468702  0.7985796369499225  1.0000
  H   H46       1.0  0.31665881509990246  0.08464567279468702  0.7014203627498262  1.0000
  H   H47       1.0  0.18334118463736762  0.5846456731012097  0.7985796370962088  1.0000
  H   H48       1.0  0.8166588153659433  0.5846456731012097  0.7014203626035399  1.0000
  H   H49       1.0  0.24128109482887172  0.7618560205468885  0.11819902158189076  1.0000
  H   H50       1.0  0.7587189047481278  0.7618560205468885  0.38180097881708996  1.0000
  H   H51       1.0  0.7412810950949125  0.2618560202403658  0.11819902143560454  1.0000
  H   H52       1.0  0.2587189050673848  0.2618560202403658  0.3818009790554686  1.0000
  H   H53       1.0  0.7587189049612834  0.23814397931105782  0.8818009784674741  1.0000
  H   H54       1.0  0.2412810950420275  0.23814397931105782  0.6181990212322748  1.0000
  H   H55       1.0  0.2587189052805406  0.7381439796175806  0.8818009787058526  1.0000
  H   H56       1.0  0.7412810947227703  0.7381439796175806  0.6181990209938961  1.0000
  H   H57       1.0  0.06015684236566755  0.6807773685698193  0.8465095134382408  1.0000
  H   H58       1.0  0.9398431576400013  0.6807773685698193  0.6534904874868619  1.0000
  H   H59       1.0  0.5601568426317083  0.18077736826329657  0.8465095132919546  1.0000
  H   H60       1.0  0.4398431573716025  0.18077736826329657  0.6534904864077943  1.0000
  H   H61       1.0  0.9398431574244877  0.31922263128812706  0.15349048661112402  1.0000
  H   H62       1.0  0.06015684273545185  0.31922263128812706  0.34650951265459523  1.0000
  H   H63       1.0  0.43984315715844674  0.8192226315946498  0.15349048675741023  1.0000
  H   H64       1.0  0.5601568424161948  0.8192226315946498  0.3465095124162167  1.0000
  H   H65       1.0  0.11864713544703259  0.8433309009462914  0.9463650055219517  1.0000
  H   H66       1.0  0.8813528645586363  0.8433309009462914  0.5536349954031511  1.0000
  H   H67       1.0  0.6186471351277755  0.34333090139486766  0.946365005283573  1.0000
  H   H68       1.0  0.38135286487553544  0.34333090139486766  0.5536349944161757  1.0000
  H   H69       1.0  0.8813528649284206  0.156669098911655  0.05363499461950547  1.0000
  H   H70       1.0  0.11864713523151892  0.156669098911655  0.44636500464621376  1.0000
  H   H71       1.0  0.3813528646623797  0.6566690992181777  0.053634994765791685  1.0000
  H   H72       1.0  0.6186471354999177  0.6566690992181777  0.4463650057252815  1.0000
  H   H73       1.0  0.05903830014928206  0.00606139244280167  0.8490821808611015  1.0000
  H   H74       1.0  0.9409616998540288  0.00606139244280167  0.6509178188386473  1.0000
  H   H75       1.0  0.559038300415323  0.5060613927493244  0.8490821807148153  1.0000
  H   H76       1.0  0.440961699587988  0.5060613927493244  0.6509178189849335  1.0000
  H   H77       1.0  0.9409616996408731  0.9939386074151447  0.15091781918826327  1.0000
  H   H78       1.0  0.05903829993612629  0.9939386074151447  0.34908218121071755  1.0000
  H   H79       1.0  0.4409616999601302  0.493938607863721  0.15091781942664184  1.0000
  H   H80       1.0  0.5590383002021672  0.493938607863721  0.34908218106443134  1.0000
  C   C1        1.0  0.061512079246557216  0.6361686683196507  0.3732153865212017  1.0000
  C   C2        1.0  0.9384879209157403  0.6361686683196507  0.1267846139698715  1.0000
  C   C3        1.0  0.5615120789273  0.13616866876822706  0.3732153862828231  1.0000
  C   C4        1.0  0.4384879212349973  0.13616866876822706  0.12678461420825007  1.0000
  C   C5        1.0  0.9384879211288958  0.3638313315382956  0.6267846136202556  1.0000
  C   C6        1.0  0.061512078874415  0.3638313315382956  0.8732153860794933  1.0000
  C   C7        1.0  0.4384879208628551  0.8638313318448183  0.6267846137665418  1.0000
  C   C8        1.0  0.5615120791404559  0.8638313318448183  0.873215385933207  1.0000
  C   C9        1.0  0.11942581427806935  0.6816867381590772  0.2660667555828655  1.0000
  C   C10       1.0  0.8805741858818702  0.6816867381590772  0.2339332436828537  1.0000
  C   C11       1.0  0.6194258139588121  0.1816867386076536  0.26606675534448704  1.0000
  C   C12       1.0  0.3805741862011272  0.1816867386076536  0.23393324392123224  1.0000
  C   C13       1.0  0.8805741860973838  0.31831326169886914  0.7339332445585915  1.0000
  C   C14       1.0  0.11942581390828502  0.31831326169886914  0.7660667563665111  1.0000
  C   C15       1.0  0.3805741858313429  0.8183132620053918  0.7339332447048778  1.0000
  C   C16       1.0  0.6194258141743259  0.8183132620053918  0.7660667562202249  1.0000
  C   C17       1.0  0.16568626399841174  0.7707387017381866  0.3172225534336569  1.0000
  C   C18       1.0  0.8343137355785876  0.7707387017381866  0.18277744696532386  1.0000
  C   C19       1.0  0.6656862642644527  0.27073870218676294  0.3172225532873707  1.0000
  C   C20       1.0  0.3343137358978448  0.27073870218676294  0.18277744720370245  1.0000
  C   C21       1.0  0.8343137357917434  0.22926129811975976  0.6827774466157079  1.0000
  C   C22       1.0  0.1656862642115675  0.22926129811975976  0.8172225530840409  1.0000
  C   C23       1.0  0.3343137361110005  0.7292612984262825  0.6827774468540865  1.0000
  C   C24       1.0  0.6656862638923102  0.7292612984262825  0.8172225528456624  1.0000
  C   C25       1.0  0.14948015118234792  0.8239919596665474  0.45935079405097573  1.0000
  C   C26       1.0  0.8505198489799495  0.8239919596665474  0.0406492064400974  1.0000
  C   C27       1.0  0.6494801514483888  0.3239919593600248  0.4593507939046895  1.0000
  C   C28       1.0  0.35051984871390857  0.3239919593600248  0.0406492065863836  1.0000
  C   C29       1.0  0.8505198486078073  0.17600804019139887  0.5406492059983891  1.0000
  C   C30       1.0  0.1494801513955037  0.17600804019139887  0.9593507937013598  1.0000
  C   C31       1.0  0.35051984892706434  0.6760080404979215  0.5406492062367676  1.0000
  C   C32       1.0  0.6494801510762466  0.6760080404979215  0.9593507934629811  1.0000
  C   C33       1.0  0.19223420486452447  0.9101243115366509  0.5068940592703688  1.0000
  C   C34       1.0  0.8077657951387863  0.9101243115366509  0.99310594042938  1.0000
  C   C35       1.0  0.6922342051329232  0.41012431123012816  0.5068940603494365  1.0000
  C   C36       1.0  0.3077657948727456  0.41012431123012816  0.9931059405756661  1.0000
  C   C37       1.0  0.8077657949232728  0.08987568907639457  0.4931059395536421  1.0000
  C   C38       1.0  0.19223420523666668  0.08987568907639457  0.006894059712077149  1.0000
  C   C39       1.0  0.3077657952425299  0.5898756886278181  0.49310593979202066  1.0000
  C   C40       1.0  0.6922342049174095  0.5898756886278181  0.006894059473698574  1.0000
  C   C41       1.0  0.25158695876841713  0.944233891519884  0.41357862405906676  1.0000
  C   C42       1.0  0.7484130413938801  0.944233891519884  0.08642137643200634  1.0000
  C   C43       1.0  0.7515869590344579  0.4442338919684604  0.4135786239127806  1.0000
  C   C44       1.0  0.24841304112783935  0.4442338919684604  0.08642137657829255  1.0000
  C   C45       1.0  0.748413041021738  0.055766108338062254  0.586421375990298  1.0000
  C   C46       1.0  0.25158695898157296  0.055766108338062254  0.9135786237094508  1.0000
  C   C47       1.0  0.2484130413409951  0.5557661078894859  0.5864213762286766  1.0000
  C   C48       1.0  0.7515869586623157  0.5557661078894859  0.9135786234710722  1.0000
  C   C49       1.0  0.2693498597995614  0.890396892926559  0.2735683376774902  1.0000
  C   C50       1.0  0.7306501403627359  0.890396892926559  0.22643166281358296  1.0000
  C   C51       1.0  0.7693498600656021  0.3903968926200363  0.273568337531204  1.0000
  C   C52       1.0  0.23065014009669516  0.3903968926200363  0.2264316629598691  1.0000
  C   C53       1.0  0.7306501399905937  0.10960310693138733  0.7264316623718746  1.0000
  C   C54       1.0  0.26934986001271716  0.10960310693138733  0.7735683373278742  1.0000
  C   C55       1.0  0.23065014030985087  0.6096031072379101  0.7264316626102532  1.0000
  C   C56       1.0  0.76934985969346  0.6096031072379101  0.7735683370894958  1.0000
  C   C57       1.0  0.2269859889829773  0.8045146464816537  0.22568165215128458  1.0000
  C   C58       1.0  0.7730140105940221  0.8045146464816537  0.2743183482476962  1.0000
  C   C59       1.0  0.7269859892490181  0.30451464693023006  0.22568165200499837  1.0000
  C   C60       1.0  0.2730140109132792  0.30451464693023006  0.2743183484860747  1.0000
  C   C61       1.0  0.7730140108071778  0.1954853533762926  0.7743183478980802  1.0000
  C   C62       1.0  0.22698598919613308  0.1954853533762926  0.7256816518016687  1.0000
  C   C63       1.0  0.2730140111264349  0.6954853529277162  0.7743183481364588  1.0000
  C   C64       1.0  0.7269859888768758  0.6954853529277162  0.72568165156329  1.0000
  C   C65       1.0  0.03356319588081903  0.7518992652912054  0.8045279630158672  1.0000
  C   C66       1.0  0.9664368041224918  0.7518992652912054  0.6954720366838817  1.0000
  C   C67       1.0  0.5335631961492178  0.25189926498468285  0.8045279640949349  1.0000
  C   C68       1.0  0.46643680385645103  0.25189926498468285  0.6954720368301679  1.0000
  C   C69       1.0  0.9664368039069782  0.24810073456674075  0.19547203580814376  1.0000
  C   C70       1.0  0.033563196252961246  0.24810073456674075  0.30452796345757543  1.0000
  C   C71       1.0  0.4664368042262353  0.7481007348732635  0.1954720360465223  1.0000
  C   C72       1.0  0.533563195933704  0.7481007348732635  0.3045279632191969  1.0000
  C   C73       1.0  0.06664504696444913  0.8433984611705618  0.8603635226299253  1.0000
  C   C74       1.0  0.9333549530388617  0.8433984611705618  0.6396364770698234  1.0000
  C   C75       1.0  0.5666450472328478  0.3433984608640391  0.8603635237089929  1.0000
  C   C76       1.0  0.43335495277282093  0.3433984608640391  0.6396364772161097  1.0000
  C   C77       1.0  0.9333549528233481  0.15660153944248356  0.13963647619408556  1.0000
  C   C78       1.0  0.06664504733659134  0.15660153944248356  0.36036352307163366  1.0000
  C   C79       1.0  0.43335495314260525  0.6566015389939072  0.13963647643246413  1.0000
  C   C80       1.0  0.5666450470173342  0.6566015389939072  0.3603635228332551  1.0000
  C   C81       1.0  0.033158328573419125  0.9348008525936445  0.8055700178336272  1.0000
  C   C82       1.0  0.9668416714322496  0.9348008525936445  0.6944299830914754  1.0000
  C   C83       1.0  0.5331583288394599  0.4348008522871219  0.805570017687341  1.0000
  C   C84       1.0  0.46684167116385095  0.4348008522871219  0.6944299820124077  1.0000
  C   C85       1.0  0.9668416712167359  0.06519914726430173  0.19442998221573748  1.0000
  C   C86       1.0  0.033158328943203426  0.06519914726430173  0.30557001704998177  1.0000
  C   C87       1.0  0.4668416715359932  0.5651991475708243  0.19442998245411608  1.0000
  C   C88       1.0  0.5331583286263042  0.5651991475708243  0.30557001803695705  1.0000
  N   N1        1.0  0.12750938044844426  0.6382768709523532  0.12584517979840534  1.0000
  N   N2        1.0  0.8724906191285551  0.6382768709523532  0.3741548206005754  1.0000
  N   N3        1.0  0.6275093807144851  0.1382768714009295  0.12584517965211914  1.0000
  N   N4        1.0  0.3724906194454543  0.1382768714009295  0.3741548196136001  1.0000
  N   N5        1.0  0.8724906193417109  0.3617231289055932  0.8741548202509594  1.0000
  N   N6        1.0  0.12750938066160003  0.3617231289055932  0.6258451794487894  1.0000
  N   N7        1.0  0.37249061907567005  0.8617231284570168  0.8741548203972456  1.0000
  N   N8        1.0  0.6275093809299988  0.8617231284570168  0.6258451805278571  1.0000
  O   O1        1.0  0.07892709880884749  0.5563521727493971  0.09831866545638789  1.0000
  O   O2        1.0  0.9210729013534499  0.5563521727493971  0.4016813350346852  1.0000
  O   O3        1.0  0.5789270984895903  0.05635217244287445  0.09831866521800932  1.0000
  O   O4        1.0  0.421072901672707  0.05635217244287445  0.4016813352730638  1.0000
  O   O5        1.0  0.9210729015666056  0.44364782710854916  0.9016813346850693  1.0000
  O   O6        1.0  0.07892709843670527  0.44364782710854916  0.5983186650146796  1.0000
  O   O7        1.0  0.4210729013005648  0.9436478274150719  0.9016813348313554  1.0000
  O   O8        1.0  0.5789270987027462  0.9436478274150719  0.5983186648683932  1.0000
  S   S1        1.0  0.9999999998151079  0.54951774385499  0.25000000039182274  1.0000
  S   S2        1.0  0.5000000000811488  0.04951774354846726  0.25000000024553654  1.0000
  S   S3        1.0  2.8263608050077188e-11  0.4504822560029564  0.7500000000422068  1.0000
  S   S4        1.0  0.4999999997090065  0.950482256309479  0.7499999998038281  1.0000
