data_image0
_chemical_formula_structural       H4C12O2F4I2
_chemical_formula_sum              "H4 C12 O2 F4 I2"
_cell_length_a       5.688653696265446
_cell_length_b       6.314947352609999
_cell_length_c       9.703680514193103
_cell_angle_alpha    102.02789347732165
_cell_angle_beta     93.13375526938236
_cell_angle_gamma    97.41673755865867

_space_group_name_H-M_alt    "P 1"
_space_group_IT_number       1

loop_
  _space_group_symop_operation_xyz
  'x, y, z'

loop_
  _atom_site_type_symbol
  _atom_site_label
  _atom_site_symmetry_multiplicity
  _atom_site_fract_x
  _atom_site_fract_y
  _atom_site_fract_z
  _atom_site_occupancy
  H   H1        1.0  0.23797500327949309  0.6435001793931747  0.9903644986626592  1.0000
  H   H2        1.0  0.7620249975583798  0.35649982079820597  0.009635500796730801  1.0000
  H   H3        1.0  0.10140024230845356  0.912494637649425  0.8571837489894909  1.0000
  H   H4        1.0  0.8985997585294194  0.08750536254195586  0.14281625046989893  1.0000
  C   C1        1.0  0.31859086974607304  0.5736280783708569  0.4235737699919539  1.0000
  C   C2        1.0  0.681409129500146  0.42637192219376385  0.5764262305328072  1.0000
  C   C3        1.0  0.3901406450237621  0.3697310050998796  0.3754920394191582  1.0000
  C   C4        1.0  0.6098593558141107  0.6302689950915011  0.6245079600402318  1.0000
  C   C5        1.0  0.4319956221530031  0.7028965723249083  0.5498708139872354  1.0000
  C   C6        1.0  0.5680043770932159  0.2971034282397124  0.4501291865375256  1.0000
  C   C7        1.0  0.5772050390993567  0.8463971487785971  0.07559847652893234  1.0000
  C   C8        1.0  0.4227949601468623  0.15360285178602373  0.9244015239958288  1.0000
  C   C9        1.0  0.3439392254605715  0.8004859671120569  0.9924417483518296  1.0000
  C   C10       1.0  0.656060775144968  0.19951403148478622  0.007558251114474889  1.0000
  C   C11       1.0  0.2712702702334251  0.9449369762929724  0.9209232366075737  1.0000
  C   C12       1.0  0.7287297288483475  0.05506302390525899  0.07907676285982537  1.0000
  O   O1        1.0  0.6417871545840527  0.7102951428921659  0.14032398465545046  1.0000
  O   O2        1.0  0.3582128446621664  0.2897048576724548  0.8596760158693106  1.0000
  F   F1        1.0  0.2848479890806567  0.23661918321919878  0.25373079956072175  1.0000
  F   F2        1.0  0.7151520099332287  0.7633808157508841  0.7462692009709537  1.0000
  F   F3        1.0  0.36691541371868275  0.9003849448482287  0.6033848743247126  1.0000
  F   F4        1.0  0.6330845855275363  0.09961505571639195  0.39661512620004846  1.0000
  I   I1        1.0  0.041627640476566745  0.6725303745666206  0.31289121566751055  1.0000
  I   I2        1.0  0.9583723585373188  0.3274696244034624  0.687108784864165  1.0000
