data_image0
_chemical_formula_structural       H40C44N6O12Cl2
_chemical_formula_sum              "H40 C44 N6 O12 Cl2"
_cell_length_a       6.610261326573901
_cell_length_b       7.232328538742781
_cell_length_c       24.799113939988747
_cell_angle_alpha    81.05170158659806
_cell_angle_beta     83.34028340445529
_cell_angle_gamma    65.57454104011312

_space_group_name_H-M_alt    "P 1"
_space_group_IT_number       1

loop_
  _space_group_symop_operation_xyz
  'x, y, z'

loop_
  _atom_site_type_symbol
  _atom_site_label
  _atom_site_symmetry_multiplicity
  _atom_site_fract_x
  _atom_site_fract_y
  _atom_site_fract_z
  _atom_site_occupancy
  H   H1        1.0  0.7779682039300471  0.7361142202250389  0.9302881926181774  1.0000
  H   H2        1.0  0.22203179546055402  0.2638857799982576  0.06971180741746409  1.0000
  H   H3        1.0  0.6118045732216079  0.8427262013553832  0.49551835397937494  1.0000
  H   H4        1.0  0.38819542616899316  0.1572737988679133  0.5044816460562667  1.0000
  H   H5        1.0  0.8743933288482251  0.8552047019187783  0.4172627520118507  1.0000
  H   H6        1.0  0.12560667054237573  0.14479529830451804  0.582737248023791  1.0000
  H   H7        1.0  0.40461583937636986  0.6510939225677429  0.5277098757367902  1.0000
  H   H8        1.0  0.5953841600142311  0.34890607765555337  0.4722901242988514  1.0000
  H   H9        1.0  0.14090705159150946  0.6382570922797721  0.6058614151744001  1.0000
  H   H10       1.0  0.8590929477990915  0.3617429079435242  0.39413858486124154  1.0000
  H   H11       1.0  0.45623220806130743  0.5241007277956663  0.6604189552713674  1.0000
  H   H12       1.0  0.5437677920127444  0.4758992709075892  0.3395810447676455  1.0000
  H   H13       1.0  0.24678678281165836  0.4829239843965146  0.7480964122547774  1.0000
  H   H14       1.0  0.7532132165789425  0.5170760158267819  0.2519035877808642  1.0000
  H   H15       1.0  0.33330946140679013  0.5708145247528621  0.8335364896988716  1.0000
  H   H16       1.0  0.6666905379838107  0.42918547547043434  0.16646351033677007  1.0000
  H   H17       1.0  0.8520395854695255  0.7254883625842734  0.7433246089076889  1.0000
  H   H18       1.0  0.14796041392107562  0.274511637639023  0.2566753911279526  1.0000
  H   H19       1.0  0.8166565708351031  0.7220081797050514  0.840641825243176  1.0000
  H   H20       1.0  0.18334342855549787  0.2779918205182449  0.15935817479246567  1.0000
  H   H21       1.0  0.9390582321770403  0.6878705292423299  0.9981789408815039  1.0000
  H   H22       1.0  0.06094176789701134  0.3121294694609258  0.0018210591575088758  1.0000
  H   H23       1.0  0.061790018622228354  0.725858647808392  0.08360612103726149  1.0000
  H   H24       1.0  0.9382099807683726  0.2741413524149044  0.9163938789983801  1.0000
  H   H25       1.0  0.433661431073158  0.8665388139581083  0.161376827346824  1.0000
  H   H26       1.0  0.5663385690008937  0.1334611847451473  0.8386231726921888  1.0000
  H   H27       1.0  0.2823560072632479  0.8346459358414268  0.07746725605148147  1.0000
  H   H28       1.0  0.7176439921273527  0.16535406438186967  0.9225327439841602  1.0000
  H   H29       1.0  0.8161660228578395  0.8173142086161506  0.18087654559158403  1.0000
  H   H30       1.0  0.1838339766385041  0.18268579177656313  0.8191234540351899  1.0000
  H   H31       1.0  0.1344320303002171  0.9380611504819991  0.29590563758458915  1.0000
  H   H32       1.0  0.8655679690903839  0.061938849741297305  0.7040943624510524  1.0000
  H   H33       1.0  0.9930140604891643  0.769827844659792  0.3146071428635138  1.0000
  H   H34       1.0  0.0069859404151884725  0.23017215556020335  0.6853928571733502  1.0000
  H   H35       1.0  0.8384273958896299  0.03855813206143079  0.30608250831543643  1.0000
  H   H36       1.0  0.161572603500971  0.9614418681618655  0.6939174917202051  1.0000
  H   H37       1.0  0.15403376426300605  0.7575792075109354  0.9267537530548067  1.0000
  H   H38       1.0  0.8459662366413467  0.24242079270905992  0.07324624698205716  1.0000
  H   H39       1.0  0.022290815352391562  0.8695424945984442  0.8727016124136655  1.0000
  H   H40       1.0  0.9777091840382093  0.1304575056248522  0.12729838762197607  1.0000
  C   C1        1.0  0.7860482688531842  0.7979499764442382  0.5025617283148576  1.0000
  C   C2        1.0  0.2139517313266098  0.202050022428435  0.49743827131528756  1.0000
  C   C3        1.0  0.9335426598202954  0.8039880090500351  0.45833323991692654  1.0000
  C   C4        1.0  0.06645733957030556  0.19601199117326137  0.5416667601187151  1.0000
  C   C5        1.0  0.1559401095748963  0.7494450970892661  0.46797155933814233  1.0000
  C   C6        1.0  0.8440598898157047  0.2505549031340303  0.5320284406974993  1.0000
  C   C7        1.0  0.23214448534316132  0.6888429348590974  0.5206896239255511  1.0000
  C   C8        1.0  0.7678555155611916  0.3111570653608979  0.47931037611131283  1.0000
  C   C9        1.0  0.08332178924544811  0.6821777268466832  0.5645778504703328  1.0000
  C   C10       1.0  0.9166782101451527  0.3178222733766133  0.4354221495653088  1.0000
  C   C11       1.0  0.8588572807757439  0.7375827379540867  0.5559197573733189  1.0000
  C   C12       1.0  0.14114271861485714  0.26241726226920964  0.44408024266232277  1.0000
  C   C13       1.0  0.6923737625260797  0.7433671072258199  0.601604969674106  1.0000
  C   C14       1.0  0.3076262383782731  0.2566328929941756  0.39839503036275775  1.0000
  C   C15       1.0  0.6611829920926418  0.631808688810284  0.6972181436526046  1.0000
  C   C16       1.0  0.3388170072979593  0.3681913114130124  0.3027818563830371  1.0000
  C   C17       1.0  0.4935047536998351  0.5616769774624779  0.697763370351628  1.0000
  C   C18       1.0  0.5064952472045177  0.43832302275751744  0.3022366296852358  1.0000
  C   C19       1.0  0.37619984237104487  0.5398748278027841  0.7472327956871452  1.0000
  C   C20       1.0  0.6238001570195563  0.4601251724205122  0.25276720434849637  1.0000
  C   C21       1.0  0.42653015630119023  0.5853005090275015  0.7951278389274389  1.0000
  C   C22       1.0  0.5734698430894105  0.4146994911957949  0.2048721611082028  1.0000
  C   C23       1.0  0.6013269109241368  0.6490571556213421  0.7944475974487634  1.0000
  C   C24       1.0  0.39867308846646426  0.350942844601954  0.2055524025868783  1.0000
  C   C25       1.0  0.7179901614358317  0.6738293117530437  0.7447192299555252  1.0000
  C   C26       1.0  0.28200983795476936  0.32617068847025266  0.2552807700801164  1.0000
  C   C27       1.0  0.6686372989736364  0.6872269299824961  0.8439796626100685  1.0000
  C   C28       1.0  0.33136270041696453  0.3127730702408002  0.1560203374255731  1.0000
  C   C29       1.0  0.5017951313352447  0.728969457004428  0.9820547155962692  1.0000
  C   C30       1.0  0.4982048687388069  0.27103054169882757  0.01794528444274354  1.0000
  C   C31       1.0  0.5977727828733492  0.7534512978151812  0.03089989041677286  1.0000
  C   C32       1.0  0.4022272165172517  0.24654870240811513  0.9691001096188688  1.0000
  C   C33       1.0  0.819163370903326  0.7259439917839287  0.03288333100172814  1.0000
  C   C34       1.0  0.18083663000102665  0.2740560084360668  0.9671166690351358  1.0000
  C   C35       1.0  0.889530494260023  0.7488792461314255  0.08118142986221848  1.0000
  C   C36       1.0  0.11046950513057813  0.25112075409187085  0.9188185701734232  1.0000
  C   C37       1.0  0.5405265170353588  0.8257636565740232  0.12434944766311963  1.0000
  C   C38       1.0  0.45947348235524227  0.1742363436492731  0.8756505523725221  1.0000
  C   C39       1.0  0.4569330696606592  0.8054950738653378  0.07782723503142447  1.0000
  C   C40       1.0  0.5430669298356842  0.194504926527376  0.9221727645953496  1.0000
  C   C41       1.0  0.9617099780754936  0.9109963486780513  0.23123991351618425  1.0000
  C   C42       1.0  0.03829002282885935  0.08900365154194423  0.7687600865206796  1.0000
  C   C43       1.0  0.9859927423947289  0.912941773158212  0.2907155108487751  1.0000
  C   C44       1.0  0.014007258509623812  0.08705822706178364  0.7092844891880887  1.0000
  N   N1        1.0  0.5553574893982048  0.679100535241964  0.8898927990548907  1.0000
  N   N2        1.0  0.44464251218959866  0.32089946345799075  0.11010720098534442  1.0000
  N   N3        1.0  0.6316319203485047  0.711330230276057  0.9345651165252223  1.0000
  N   N4        1.0  0.3683680805558481  0.28866976994393845  0.06543488351164146  1.0000
  N   N5        1.0  0.7539426467493366  0.7975573595888578  0.1261258782906274  1.0000
  N   N6        1.0  0.2460573526412643  0.20244264063443876  0.8738741217450142  1.0000
  O   O1        1.0  0.4907389005628711  0.8232603689851788  0.5978879356109243  1.0000
  O   O2        1.0  0.5092610988277296  0.17673963123811762  0.4021120644247172  1.0000
  O   O3        1.0  0.7928934763077548  0.6484416521922964  0.6497677725954162  1.0000
  O   O4        1.0  0.2071065230828461  0.3515583480310001  0.35023222744022536  1.0000
  O   O5        1.0  0.3136646815440315  0.7261018717978502  0.9855526837692749  1.0000
  O   O6        1.0  0.6863353178465694  0.27389812842544603  0.014447316266366793  1.0000
  O   O7        1.0  0.05036321867815064  0.9930166726718785  0.19378291356126023  1.0000
  O   O8        1.0  0.9496367822262021  0.006983327548116929  0.8062170864756036  1.0000
  O   O9        1.0  0.8355925130062358  0.8174523408615116  0.22328662193623022  1.0000
  O   O10       1.0  0.16440748789811693  0.18254765935848388  0.7767133781006337  1.0000
  O   O11       1.0  0.023617207432612305  0.7780283887256515  0.9067816454797579  1.0000
  O   O12       1.0  0.9763827934717404  0.22197161149434402  0.09321835455710599  1.0000
  Cl  Cl1       1.0  0.34125613757873763  0.7599554834036183  0.4133480732833823  1.0000
  Cl  Cl2       1.0  0.658743862495314  0.24004451529963747  0.5866519267556304  1.0000
