data_image0
_chemical_formula_structural       H72C116O16S8Cl16
_chemical_formula_sum              "H72 C116 O16 S8 Cl16"
_cell_length_a       9.931074417616133
_cell_length_b       16.10222936671575
_cell_length_c       18.28310995396223
_cell_angle_alpha    76.42030855845935
_cell_angle_beta     87.3358627068848
_cell_angle_gamma    73.50642657471015

_space_group_name_H-M_alt    "P 1"
_space_group_IT_number       1

loop_
  _space_group_symop_operation_xyz
  'x, y, z'

loop_
  _atom_site_type_symbol
  _atom_site_label
  _atom_site_symmetry_multiplicity
  _atom_site_fract_x
  _atom_site_fract_y
  _atom_site_fract_z
  _atom_site_occupancy
  H   H1        1.0  0.8728377041331443  0.22519824688266377  0.4354548668595934  1.0000
  H   H2        1.0  0.12716229559952874  0.7748017531431473  0.5645451331837842  1.0000
  H   H3        1.0  0.03296962489922332  0.31427572061660747  0.37632188400993555  1.0000
  H   H4        1.0  0.9670303748334496  0.6857242794092036  0.6236781160334421  1.0000
  H   H5        1.0  0.028811980413230808  0.36898404071870106  0.23584339167835502  1.0000
  H   H6        1.0  0.9711880193194421  0.6310159593071099  0.7641566083650227  1.0000
  H   H7        1.0  0.8624179367530765  0.33576333455213814  0.15760365083898903  1.0000
  H   H8        1.0  0.13758206396527586  0.6642366656238554  0.8423963486414149  1.0000
  H   H9        1.0  0.29506606157071064  0.10663187088083938  0.41555126413476146  1.0000
  H   H10       1.0  0.7049339381619623  0.8933681291449715  0.5844487359086162  1.0000
  H   H11       1.0  0.3902362548067246  0.19630277807617233  0.305697597517437  1.0000
  H   H12       1.0  0.6097637459344952  0.8036972219461455  0.6943024025257818  1.0000
  H   H13       1.0  0.30091053258037714  0.21285223677496237  0.17563962053776122  1.0000
  H   H14       1.0  0.6990894671522957  0.7871477632508487  0.8243603795056165  1.0000
  H   H15       1.0  0.11952026959301967  0.14061295505991403  0.1567474761099776  1.0000
  H   H16       1.0  0.8804797311482001  0.8593870449624039  0.843252523933241  1.0000
  H   H17       1.0  0.47184593095203375  0.24954847464302002  0.49665501418948205  1.0000
  H   H18       1.0  0.5281540687806391  0.7504515253827909  0.5033449858538955  1.0000
  H   H19       1.0  0.5954632629630641  0.08812968036617036  0.5409261673947535  1.0000
  H   H20       1.0  0.4045367377781555  0.9118703196561474  0.45907383264846524  1.0000
  H   H21       1.0  0.4571406745040039  0.9808325519100127  0.5944816848717338  1.0000
  H   H22       1.0  0.5428593252286689  0.01916744811579838  0.4055183151716439  1.0000
  H   H23       1.0  0.19770354675447346  0.03562730524729379  0.603835885148728  1.0000
  H   H24       1.0  0.8022964539867464  0.964372694775024  0.39616411489449077  1.0000
  H   H25       1.0  0.1762327463782818  0.24268266881826858  0.7149678036840867  1.0000
  H   H26       1.0  0.823767253354391  0.7573173312075424  0.28503219635929083  1.0000
  H   H27       1.0  0.15835719825486105  0.08994738990024802  0.7712207110491285  1.0000
  H   H28       1.0  0.8416428014778118  0.9100526101255629  0.22877928899424924  1.0000
  H   H29       1.0  0.3772338174226922  0.9638970940923001  0.8073077070685395  1.0000
  H   H30       1.0  0.6227661823099807  0.03610290593351105  0.19269229297483817  1.0000
  H   H31       1.0  0.6104878500169079  0.9925032706483973  0.7854728287348016  1.0000
  H   H32       1.0  0.3895121497157649  0.007496729377413802  0.21452717130857604  1.0000
  H   H33       1.0  0.8198561189159035  0.4533577168278278  0.49449235131558394  1.0000
  H   H34       1.0  0.18014388081676946  0.5466422831979832  0.5055076487277936  1.0000
  H   H35       1.0  0.7275404424479941  0.9471432299968489  0.9381678670877133  1.0000
  H   H36       1.0  0.27245955829322577  0.0528567700254687  0.06183213295550542  1.0000
  H   H37       1.0  0.6466560834255579  0.3844024038481328  0.5289554311265149  1.0000
  H   H38       1.0  0.35334391731566195  0.6155975961741849  0.4710445689167038  1.0000
  H   H39       1.0  0.6322421818399261  0.9483384708540759  0.05302392800958491  1.0000
  H   H40       1.0  0.36775781789274675  0.05166152917173518  0.9469760720337926  1.0000
  H   H41       1.0  0.1644474159834272  0.4269299053035241  0.758553017379355  1.0000
  H   H42       1.0  0.8355525847577926  0.5730700947187936  0.24144698266386375  1.0000
  H   H43       1.0  0.06230863484172852  0.4493555707883021  0.6322458737796729  1.0000
  H   H44       1.0  0.9376913648909442  0.550644429237509  0.3677541262637048  1.0000
  H   H45       1.0  0.739720190628702  0.33137615743918775  0.7329595775869385  1.0000
  H   H46       1.0  0.26027980910397086  0.6686238425866232  0.2670404224564391  1.0000
  H   H47       1.0  0.8333663083820215  0.3171593763104447  0.8600614295541864  1.0000
  H   H48       1.0  0.16663369135065143  0.6828406237153662  0.13993857048919117  1.0000
  H   H49       1.0  0.1048551886165721  0.17980769985503475  0.8732632300913749  1.0000
  H   H50       1.0  0.8951448111161007  0.8201923001707763  0.1267367699520029  1.0000
  H   H51       1.0  0.9752099579685906  0.06663549414724927  0.8800439173378597  1.0000
  H   H52       1.0  0.024790042056738393  0.9333645052308043  0.11995608270582486  1.0000
  H   H53       1.0  0.7642371315235915  0.13722939888309477  0.07681645438344618  1.0000
  H   H54       1.0  0.23576286921762818  0.8627706011392229  0.9231835456597727  1.0000
  H   H55       1.0  0.8851075850054829  0.25412584544816724  0.06775610762101596  1.0000
  H   H56       1.0  0.11489241501984593  0.7458741539298864  0.9322438924226685  1.0000
  H   H57       1.0  0.26788156116142114  0.43392553602798584  0.2754682728119048  1.0000
  H   H58       1.0  0.7321184395797986  0.566074463994332  0.724531727231314  1.0000
  H   H59       1.0  0.3880913609199913  0.40546484198275895  0.3979745076001896  1.0000
  H   H60       1.0  0.6119086388126816  0.594535158043052  0.602025492443188  1.0000
  H   H61       1.0  0.7380294829411302  0.48178810884377166  0.28473796463096  1.0000
  H   H62       1.0  0.2619705170841988  0.518211890534282  0.7152620354127245  1.0000
  H   H63       1.0  0.6225157203429101  0.5063490945024274  0.160806454062699  1.0000
  H   H64       1.0  0.3774842803983097  0.4936509055198904  0.8391935459805198  1.0000
  H   H65       1.0  0.4714512878786521  0.6275901452971182  0.9428863343537631  1.0000
  H   H66       1.0  0.5285487118540209  0.3724098547286928  0.05711366568961447  1.0000
  H   H67       1.0  0.5640945007784086  0.7590704688082727  0.916059718502735  1.0000
  H   H68       1.0  0.4359054989542642  0.24092953121753838  0.08394028154064243  1.0000
  H   H69       1.0  0.4944309346905744  0.7825873219287961  0.14494751288146446  1.0000
  H   H70       1.0  0.5055690660277781  0.21741267824719743  0.8550524865989394  1.0000
  H   H71       1.0  0.4026649610768207  0.6516283796673887  0.17285017136348763  1.0000
  H   H72       1.0  0.5973350386558521  0.34837162035842223  0.82714982867989  1.0000
  C   C1        1.0  0.7749929158413486  0.2620219515674952  0.2519941847733592  1.0000
  C   C2        1.0  0.2250070838913245  0.7379780484583158  0.7480058152700184  1.0000
  C   C3        1.0  0.7779424390031291  0.23103338618771624  0.33047150547455095  1.0000
  C   C4        1.0  0.22205756173809085  0.7689666138346015  0.6695284945686678  1.0000
  C   C5        1.0  0.8713885490646149  0.24990316222547282  0.3746286998825513  1.0000
  C   C6        1.0  0.12861145167660468  0.750096837796845  0.6253713001606674  1.0000
  C   C7        1.0  0.9615369653820719  0.29952790204149227  0.3409639277931616  1.0000
  C   C8        1.0  0.03846303435060102  0.7004720979843188  0.659036072250216  1.0000
  C   C9        1.0  0.9588810124556654  0.33011159173306553  0.26288927836149684  1.0000
  C   C10       1.0  0.04111898828555442  0.6698884082892523  0.7371107216817219  1.0000
  C   C11       1.0  0.8658643994352713  0.3114310411600486  0.21854499986755105  1.0000
  C   C12       1.0  0.1341356012830811  0.688568959015945  0.7814549996128527  1.0000
  C   C13       1.0  0.10632502041072847  0.08347587340272421  0.2744573160045885  1.0000
  C   C14       1.0  0.8936749793219443  0.9165241266230867  0.7255426840387892  1.0000
  C   C15       1.0  0.1574882343676412  0.07302548939987429  0.3474058315795065  1.0000
  C   C16       1.0  0.8425117663735787  0.9269745106224436  0.6525941684637123  1.0000
  C   C17       1.0  0.25881241274993305  0.11430820427545635  0.35832326745137055  1.0000
  C   C18       1.0  0.7411875869598724  0.8856917959040304  0.6416767320291922  1.0000
  C   C19       1.0  0.31058304757763006  0.16478685408257887  0.2968006840808446  1.0000
  C   C20       1.0  0.6894169531635899  0.8352131459397389  0.7031993159623742  1.0000
  C   C21       1.0  0.2608764783393128  0.1741866314371879  0.2242876115623724  1.0000
  C   C22       1.0  0.7391235224019072  0.8258133685851297  0.7757123884808463  1.0000
  C   C23       1.0  0.158823888619298  0.1339873527289263  0.213056363696913  1.0000
  C   C24       1.0  0.8411761111133749  0.8660126472968845  0.7869436363464646  1.0000
  C   C25       1.0  0.26715881480359277  0.2324881378499658  0.5245062712873481  1.0000
  C   C26       1.0  0.7328411849290801  0.7675118621758452  0.4754937287560294  1.0000
  C   C27       1.0  0.4131218907685744  0.20169512175689408  0.5192409336110109  1.0000
  C   C28       1.0  0.5868781099726456  0.7983048782654237  0.4807590664322078  1.0000
  C   C29       1.0  0.4815011288539214  0.1113086305616193  0.5443088019869443  1.0000
  C   C30       1.0  0.5184988708787515  0.8886913694641917  0.4556911980564333  1.0000
  C   C31       1.0  0.40420890160337564  0.05137019546849276  0.5741872553143753  1.0000
  C   C32       1.0  0.5957910991378442  0.9486298045538252  0.42581274472884334  1.0000
  C   C33       1.0  0.2589365461006024  0.08151143313601451  0.5797708016670524  1.0000
  C   C34       1.0  0.7410634546406172  0.9184885668863033  0.42022919837616624  1.0000
  C   C35       1.0  0.19007913018623546  0.17220714734329878  0.5556389736122439  1.0000
  C   C36       1.0  0.8099208705549845  0.8277928526790189  0.44436102643097475  1.0000
  C   C37       1.0  0.5245374900443089  0.13246442338910286  0.738540912253201  1.0000
  C   C38       1.0  0.4754625096883638  0.8675355766367081  0.2614590877901766  1.0000
  C   C39       1.0  0.40190648383531064  0.20337727313355006  0.7189660768351699  1.0000
  C   C40       1.0  0.5980935158973619  0.796622726892261  0.28103392320820775  1.0000
  C   C41       1.0  0.270521340793066  0.18735505489506793  0.7311711714815576  1.0000
  C   C42       1.0  0.72947866024081  0.8126449444794925  0.26882882856196794  1.0000
  C   C43       1.0  0.2615757990149435  0.10144257143149876  0.7626880138111007  1.0000
  C   C44       1.0  0.7384242007177294  0.8985574285943122  0.237311986232277  1.0000
  C   C45       1.0  0.3834732791495212  0.031094873850515257  0.7821983968445501  1.0000
  C   C46       1.0  0.6165267208758077  0.9689051255275385  0.21780160319913433  1.0000
  C   C47       1.0  0.5145960133331117  0.0466430138322618  0.7702726235116982  1.0000
  C   C48       1.0  0.48540398740810825  0.9533569861900559  0.2297273765315205  1.0000
  C   C49       1.0  0.06247823614095614  0.36444876040152224  0.8932620967297513  1.0000
  C   C50       1.0  0.9375217646002636  0.6355512396207955  0.10673790331346743  1.0000
  C   C51       1.0  0.0559925064556454  0.3039386893245486  0.9589087565586316  1.0000
  C   C52       1.0  0.9440074942855745  0.6960613106977691  0.04109124348458709  1.0000
  C   C53       1.0  0.1554781391050303  0.4200029925859853  0.9979324715804849  1.0000
  C   C54       1.0  0.8445218606276426  0.5799970074398256  0.0020675284628926312  1.0000
  C   C55       1.0  0.217165460768262  0.4619088841039281  0.0369385610092408  1.0000
  C   C56       1.0  0.7828345389644107  0.5380911159218829  0.9630614390341367  1.0000
  C   C57       1.0  0.3621942639159524  0.49238621200862853  0.1369739345193911  1.0000
  C   C58       1.0  0.6378057358167203  0.5076137880171825  0.8630260655239865  1.0000
  C   C59       1.0  0.3690407464608731  0.5546786682990181  0.07240412903676643  1.0000
  C   C60       1.0  0.6309592532717997  0.44532133172679284  0.9275958710066113  1.0000
  C   C61       1.0  0.006920238362359583  0.3704697470357896  0.8186340402435414  1.0000
  C   C62       1.0  0.9930797613703135  0.6295302529900212  0.18136595979983636  1.0000
  C   C63       1.0  0.06869834724730912  0.4083801388504303  0.7532572659153968  1.0000
  C   C64       1.0  0.9313016534939106  0.5916198611718876  0.24674273412782197  1.0000
  C   C65       1.0  0.01249531995774142  0.4198317337332925  0.6819798305165401  1.0000
  C   C66       1.0  0.9875046797749314  0.5801682662925185  0.3180201695268375  1.0000
  C   C67       1.0  0.893690523667416  0.3914541592555293  0.6750866882085718  1.0000
  C   C68       1.0  0.10630947604238931  0.6085458409239575  0.32491331127199097  1.0000
  C   C69       1.0  0.8324244418696188  0.3524433755210335  0.7398693109419322  1.0000
  C   C70       1.0  0.16757555887160105  0.6475566245012843  0.2601306891012865  1.0000
  C   C71       1.0  0.8862109618884929  0.3436285603870791  0.810541394394324  1.0000
  C   C72       1.0  0.11378903784417997  0.6563714396387318  0.18945860564905354  1.0000
  C   C73       1.0  0.8248819594470838  0.4032665528188792  0.6020012840858326  1.0000
  C   C74       1.0  0.17511804028558903  0.5967334472069319  0.397998715957545  1.0000
  C   C75       1.0  0.9995653967498991  0.22725693742717518  0.9681788669230652  1.0000
  C   C76       1.0  0.0004346029827738444  0.7727430625986358  0.03182113312031248  1.0000
  C   C77       1.0  0.028198795586827287  0.17156851075823096  0.9169788486344357  1.0000
  C   C78       1.0  0.9718012041458456  0.82843148926758  0.0830211514089419  1.0000
  C   C79       1.0  0.9563638471677129  0.10820913455803155  0.9207746240091513  1.0000
  C   C80       1.0  0.04363615256495987  0.8917908654677794  0.07922537603422639  1.0000
  C   C81       1.0  0.8587797675471973  0.09712467302307146  0.9776983787662867  1.0000
  C   C82       1.0  0.14122023319402247  0.9028753269992463  0.022301621276932127  1.0000
  C   C83       1.0  0.8380743975256129  0.14759140573501256  0.03212217216839057  1.0000
  C   C84       1.0  0.16192560220705995  0.8524085942907984  0.9678778278749871  1.0000
  C   C85       1.0  0.9073722573379459  0.21211301071520058  0.027340848222274904  1.0000
  C   C86       1.0  0.092627742394727  0.7878869893106104  0.9726591518211027  1.0000
  C   C87       1.0  0.7757751990765682  0.03303953275691981  0.983472556732459  1.0000
  C   C88       1.0  0.2242248006561047  0.9669604672688913  0.016527443310918495  1.0000
  C   C89       1.0  0.4349073131573393  0.47466797996320526  0.20923792661878488  1.0000
  C   C90       1.0  0.5650926865524663  0.5253320202162813  0.7907620728617778  1.0000
  C   C91       1.0  0.3721487434778669  0.4434448702688136  0.27692600242577936  1.0000
  C   C92       1.0  0.627851257263353  0.5565551297535042  0.7230739976174393  1.0000
  C   C93       1.0  0.4386367867636797  0.4281787676436836  0.34595091427454866  1.0000
  C   C94       1.0  0.5613632129689934  0.5718212323821272  0.654049085768829  1.0000
  C   C95       1.0  0.5693093869080686  0.4446804603820732  0.348569768993473  1.0000
  C   C96       1.0  0.4306906128246042  0.5553195396437378  0.6514302310499047  1.0000
  C   C97       1.0  0.6340510961831359  0.473172453730393  0.2814445571339791  1.0000
  C   C98       1.0  0.3659489035495371  0.5268275462954178  0.7185554429093985  1.0000
  C   C99       1.0  0.5691850148008382  0.4866313456518075  0.21258172189184643  1.0000
  C   C100      1.0  0.4308149849318347  0.5133686543740036  0.7874182781515312  1.0000
  C   C101      1.0  0.6419716562405038  0.4327831642138902  0.42054529502621524  1.0000
  C   C102      1.0  0.3580283437848252  0.5672168351641634  0.5794547050174692  1.0000
  C   C103      1.0  0.43175184436003544  0.6289865838773708  0.060069085833902955  1.0000
  C   C104      1.0  0.5682481553726374  0.3710134161484402  0.9399309142094746  1.0000
  C   C105      1.0  0.4763479337941193  0.6613454175942457  0.9874586623284294  1.0000
  C   C106      1.0  0.5236520659385536  0.3386545824315653  0.012541337714948074  1.0000
  C   C107      1.0  0.528405130955047  0.7347830207235304  0.9720793424459983  1.0000
  C   C108      1.0  0.47159486978617254  0.26521697929878746  0.027920657597220382  1.0000
  C   C109      1.0  0.5367097342969889  0.7782522907936118  0.02875678979851709  1.0000
  C   C110      1.0  0.46329026644423094  0.22174770922870615  0.9712432102447015  1.0000
  C   C111      1.0  0.49022970142952615  0.7477671908924383  0.10116699183005393  1.0000
  C   C112      1.0  0.5097702993116938  0.25223280912987955  0.8988330082131648  1.0000
  C   C113      1.0  0.4384559750714354  0.6742165060746343  0.11656411514263816  1.0000
  C   C114      1.0  0.5615440246612374  0.3257834939511767  0.8834358849007394  1.0000
  C   C115      1.0  0.5954414286615385  0.8550944592484632  0.011835850880673635  1.0000
  C   C116      1.0  0.4045585710711343  0.1449055407773478  0.9881641491627039  1.0000
  O   O1        1.0  0.8733010532881299  0.45010530308495655  0.543345606498467  1.0000
  O   O2        1.0  0.12669894644454296  0.5498946969408544  0.4566543935449108  1.0000
  O   O3        1.0  0.7252353431918684  0.37081921658003136  0.5988295556846434  1.0000
  O   O4        1.0  0.27476465654080445  0.6291807834457797  0.40117044435873433  1.0000
  O   O5        1.0  0.7892245691096317  0.9913400336256786  0.9285363507314482  1.0000
  O   O6        1.0  0.21077543062304127  0.008659966400132368  0.07146364931192939  1.0000
  O   O7        1.0  0.6975588613987008  0.021574557866277193  0.038439766499568345  1.0000
  O   O8        1.0  0.30244113934251904  0.9784254421560405  0.9615602335436503  1.0000
  O   O9        1.0  0.5882085571363423  0.39138907769196846  0.48046288725658964  1.0000
  O   O10       1.0  0.41179144259633055  0.6086109223338426  0.5195371127867879  1.0000
  O   O11       1.0  0.7468569579923272  0.46090789779089436  0.42226862395141773  1.0000
  O   O12       1.0  0.25314304272602517  0.539092102385099  0.5777313755289861  1.0000
  O   O13       1.0  0.5877407235377626  0.8952523177250995  0.06733769311347565  1.0000
  O   O14       1.0  0.4122592772034573  0.10474768229721822  0.9326623069297432  1.0000
  O   O15       1.0  0.6494695467749148  0.8776572304574741  0.9496560373693983  1.0000
  O   O16       1.0  0.350530453966305  0.1223427695648437  0.05034396267382037  1.0000
  S   S1        1.0  0.1234012498157154  0.4545742484306534  0.9008148286441539  1.0000
  S   S2        1.0  0.8765987499169575  0.5454257515951576  0.09918517139922373  1.0000
  S   S3        1.0  0.10206810937004679  0.3266328281459185  0.04177361274413184  1.0000
  S   S4        1.0  0.897931890362626  0.6733671718798925  0.9582263872992459  1.0000
  S   S5        1.0  0.25098366808310346  0.4256109094591126  0.13374264598742278  1.0000
  S   S6        1.0  0.7490163316495695  0.5743890905666983  0.8662573540559548  1.0000
  S   S7        1.0  0.2717566194683195  0.5552525397995204  0.9942537096990541  1.0000
  S   S8        1.0  0.7282433802643533  0.4447474602262906  0.005746290344323454  1.0000
  Cl  Cl1       1.0  0.6585151703654213  0.2411715132528667  0.19611934049551474  1.0000
  Cl  Cl2       1.0  0.3414848303757984  0.7588284867694512  0.803880659547704  1.0000
  Cl  Cl3       1.0  0.6667717503996847  0.17033338542721815  0.3740196702559329  1.0000
  Cl  Cl4       1.0  0.3332282493329881  0.8296666145985928  0.6259803297874448  1.0000
  Cl  Cl5       1.0  0.978325167352916  0.03536051933395345  0.259587595376151  1.0000
  Cl  Cl6       1.0  0.02167483338830381  0.9646394806883641  0.7404124046670678  1.0000
  Cl  Cl7       1.0  0.09648995589934249  0.009984209337800984  0.424191894369255  1.0000
  Cl  Cl8       1.0  0.90351004481901  0.9900157908381925  0.5758081051111488  1.0000
  Cl  Cl9       1.0  0.011174399630262436  0.2084678016154802  0.5680784584517722  1.0000
  Cl  Cl10      1.0  0.9888256014036133  0.7915321977590803  0.43192154159175333  1.0000
  Cl  Cl11      1.0  0.1851048306056614  0.3447887752506903  0.4941997995994806  1.0000
  Cl  Cl12      1.0  0.8148951701355582  0.6552112247716275  0.5058002004437382  1.0000
  Cl  Cl13      1.0  0.6883194188029533  0.1500515411429496  0.7236814866163384  1.0000
  Cl  Cl14      1.0  0.3116805819382664  0.8499484588793682  0.2763185134268804  1.0000
  Cl  Cl15      1.0  0.41162518058332315  0.3100065171973222  0.6796783521686913  1.0000
  Cl  Cl16      1.0  0.5883748191493496  0.6899934828284888  0.32032164787468625  1.0000
