data_image0
_chemical_formula_structural       H28C15N2O12
_chemical_formula_sum              "H28 C15 N2 O12"
_cell_length_a       5.691602927156602
_cell_length_b       9.593146405303324
_cell_length_c       9.765090236763983
_cell_angle_alpha    74.30359312780222
_cell_angle_beta     79.78238042531652
_cell_angle_gamma    78.90427924829436

_space_group_name_H-M_alt    "P 1"
_space_group_IT_number       1

loop_
  _space_group_symop_operation_xyz
  'x, y, z'

loop_
  _atom_site_type_symbol
  _atom_site_label
  _atom_site_symmetry_multiplicity
  _atom_site_fract_x
  _atom_site_fract_y
  _atom_site_fract_z
  _atom_site_occupancy
  H   H1        1.0  0.8259916623782126  0.505538053220813  0.35538210494363787  1.0000
  H   H2        1.0  0.18205674714013573  0.6408036062754193  0.660888720739565  1.0000
  H   H3        1.0  0.3975979615193883  0.7062584055474894  0.7106367092272053  1.0000
  H   H4        1.0  0.26077567997178586  0.575102905861384  0.830697368256758  1.0000
  H   H5        1.0  0.6684798215621763  0.48826636979666477  0.7303074906054131  1.0000
  H   H6        1.0  0.5859491293911433  0.2802841733789337  0.652602996015079  1.0000
  H   H7        1.0  0.24234628974360867  0.40578222579964984  0.519791246695194  1.0000
  H   H8        1.0  0.05740305173892631  0.4237002911371008  0.6806706199682743  1.0000
  H   H9        1.0  0.2947335902067616  0.1237535411649674  0.6262512958061742  1.0000
  H   H10       1.0  0.0012732683708908351  0.20855404175249836  0.5865908988172011  1.0000
  H   H11       1.0  0.06414263343392435  0.1575617677983945  0.7662396181037316  1.0000
  H   H12       1.0  0.565062754650366  0.2775955879732759  0.91361459959737  1.0000
  H   H13       1.0  0.3835760165902801  0.1594530526943632  0.8849260347694261  1.0000
  H   H14       1.0  0.2468709745062276  0.3292058328025206  0.9229570198031852  1.0000
  H   H15       1.0  0.7404759924825616  0.8999038495761069  0.5975679534067295  1.0000
  H   H16       1.0  0.3231585617279848  0.8239158657417911  0.13144216113172374  1.0000
  H   H17       1.0  0.1827247300544409  0.6904971315884207  0.2481566985259917  1.0000
  H   H18       1.0  0.39332423015733925  0.7566065614072637  0.30318128283543566  1.0000
  H   H19       1.0  0.911020212158944  0.907240560625175  0.22502943615253193  1.0000
  H   H20       1.0  0.9911521469550744  0.12724647594531496  0.2766582877867309  1.0000
  H   H21       1.0  0.19538092546097763  0.08150101898738998  0.13081554027569695  1.0000
  H   H22       1.0  0.31331193388550643  0.011146766266702881  0.44028268506881907  1.0000
  H   H23       1.0  0.515923321413563  0.9739457703757662  0.2918744903964122  1.0000
  H   H24       1.0  0.48647699885904666  0.24240731403880447  0.17348437138283798  1.0000
  H   H25       1.0  0.5777142522533064  0.20415403170744462  0.3466289235082278  1.0000
  H   H26       1.0  0.2764555908698573  0.28331535741328506  0.31986255910114814  1.0000
  H   H27       1.0  0.4706852232262651  0.5360061390400329  0.085463590479449  1.0000
  H   H28       1.0  0.09407205875728503  0.8803768992029428  0.8709593725909763  1.0000
  C   C1        1.0  0.6020239831236324  0.5586919571070615  0.5140380243038861  1.0000
  C   C2        1.0  0.5147005848903528  0.49796885699721516  0.6721028488545463  1.0000
  C   C3        1.0  0.4345835913794141  0.3464760073947689  0.7045680506161226  1.0000
  C   C4        1.0  0.20968174378321053  0.35297500595418263  0.6350134224077058  1.0000
  C   C5        1.0  0.138480419391218  0.2026118183851053  0.6547453541784596  1.0000
  C   C6        1.0  0.40602998250694133  0.2744135876376252  0.8656791910134762  1.0000
  C   C7        1.0  0.9703841843328139  0.8423824201124577  0.44332709357660915  1.0000
  C   C8        1.0  0.06180112745663289  0.8989892127011203  0.2850560217425808  1.0000
  C   C9        1.0  0.14735923940539378  0.048257090875695706  0.24815828693024683  1.0000
  C   C10       1.0  0.3593810275900947  0.050865459479574875  0.3235858895116547  1.0000
  C   C11       1.0  0.42915738223436295  0.20345968552974206  0.28905237982566984  1.0000
  C   C12       1.0  0.8210567300320647  0.5316504202376117  0.04159777810396908  1.0000
  C   C13       1.0  0.04513824951704831  0.5447254982513537  0.10525258583598951  1.0000
  C   C14       1.0  0.744824163611189  0.8787694387399483  0.9163542485167347  1.0000
  C   C15       1.0  0.5187573330816262  0.8686168431363638  0.8523428205259119  1.0000
  N   N1        1.0  0.324806685916569  0.6109316793438656  0.7218758336756796  1.0000
  N   N2        1.0  0.2547275108445478  0.7855965835339278  0.23901951502792218  1.0000
  O   O1        1.0  0.7401334504014594  0.4583780272925431  0.4545754955956925  1.0000
  O   O2        1.0  0.5512101405272546  0.6892993128937119  0.4531625366547848  1.0000
  O   O3        1.0  0.8258200757499574  0.9444136779680882  0.4979445774049409  1.0000
  O   O4        1.0  0.02368856016905446  0.7135682811907332  0.5084451088737353  1.0000
  O   O5        1.0  0.6209639817170562  0.5352019924872958  0.1334755601991236  1.0000
  O   O6        1.0  0.8380014964774847  0.5230467075534723  0.9167797379091098  1.0000
  O   O7        1.0  0.2415510854104068  0.5460335892523488  0.02060049265790374  1.0000
  O   O8        1.0  0.02099707392343105  0.5565774461622333  0.23288194497863982  1.0000
  O   O9        1.0  0.9441079228415401  0.8783140416654747  0.8237020557735572  1.0000
  O   O10       1.0  0.7290485901188946  0.8828198590040515  0.04252915019385632  1.0000
  O   O11       1.0  0.32103792448667284  0.8759720201432399  0.9358581040677008  1.0000
  O   O12       1.0  0.5432250064328358  0.850707880952489  0.7267938132845742  1.0000
