data_image0
_chemical_formula_structural       H26C14N2O12S
_chemical_formula_sum              "H26 C14 N2 O12 S1"
_cell_length_a       5.681361948241611
_cell_length_b       9.733311523874379
_cell_length_c       10.422826431924682
_cell_angle_alpha    65.92368285024854
_cell_angle_beta     87.37326600251258
_cell_angle_gamma    78.98760981632516

_space_group_name_H-M_alt    "P 1"
_space_group_IT_number       1

loop_
  _space_group_symop_operation_xyz
  'x, y, z'

loop_
  _atom_site_type_symbol
  _atom_site_label
  _atom_site_symmetry_multiplicity
  _atom_site_fract_x
  _atom_site_fract_y
  _atom_site_fract_z
  _atom_site_occupancy
  H   H1        1.0  0.998055068419551  0.57422163032328  0.6798276557326137  1.0000
  H   H2        1.0  0.40386623965423174  0.2784943765756315  0.4648518782551794  1.0000
  H   H3        1.0  0.6254831625647048  0.3111589345039174  0.544439662390772  1.0000
  H   H4        1.0  0.5743269024256373  0.1292149990465983  0.5954752444717234  1.0000
  H   H5        1.0  0.168671638254254  0.21025370226287096  0.6600263515154324  1.0000
  H   H6        1.0  0.4767547488888614  0.05892258862611014  0.8394189555411422  1.0000
  H   H7        1.0  0.2893775653959587  0.1946749151605557  0.8888261057705847  1.0000
  H   H8        1.0  0.7627059078616831  0.4390815339558544  0.8941664950643662  1.0000
  H   H9        1.0  0.5178351573712852  0.5030786923868632  0.7741193422784143  1.0000
  H   H10       1.0  0.25241683032749945  0.3736882313610728  0.9715179766127549  1.0000
  H   H11       1.0  0.38894879507388996  0.5028763236464779  0.008741159718825728  1.0000
  H   H12       1.0  0.5050010024479348  0.3030705154867493  0.0912122796601694  1.0000
  H   H13       1.0  0.3546952003800389  0.8529240028505277  0.6658209665333794  1.0000
  H   H14       1.0  0.6405439677027358  0.14418850511208717  0.314537908860768  1.0000
  H   H15       1.0  0.9794426645636884  0.42979212288046637  0.2836109093818429  1.0000
  H   H16       1.0  0.6051034068154677  0.7263033383929435  0.5037727114106952  1.0000
  H   H17       1.0  0.4221201790169751  0.873560269040834  0.37919184149686147  1.0000
  H   H18       1.0  0.3713779331283611  0.6901053182448312  0.43761522292277405  1.0000
  H   H19       1.0  0.8045757979020242  0.7998284955333455  0.2925181562590303  1.0000
  H   H20       1.0  0.6512955123304416  0.8056305861052853  0.07762297250158777  1.0000
  H   H21       1.0  0.45397121802466356  0.933069212225343  0.13277704030864584  1.0000
  H   H22       1.0  0.3805225092491188  0.6111953325945128  0.17786612656256473  1.0000
  H   H23       1.0  0.18179537414926977  0.7398775109974621  0.2292770315876105  1.0000
  H   H24       1.0  0.10143044936824946  0.9279002763113823  0.9785026610820974  1.0000
  H   H25       1.0  0.04771010860951774  0.7454146912232653  0.0007312172429228247  1.0000
  H   H26       1.0  0.3153251501874132  0.8060831359219058  0.9229800772085218  1.0000
  C   C1        1.0  0.21464467237294396  0.43368747495168025  0.6188905130502734  1.0000
  C   C2        1.0  0.31950610011042585  0.2643826190840532  0.6656776732659314  1.0000
  C   C3        1.0  0.4276518638850575  0.18171409122138982  0.8156317446524223  1.0000
  C   C4        1.0  0.5945023856505735  0.4105973923606025  0.8733546820219439  1.0000
  C   C5        1.0  0.42533402595582626  0.3958277553382607  0.9932732129623132  1.0000
  C   C6        1.0  0.0056942977745686905  0.9026693241590419  0.6542487876481566  1.0000
  C   C7        1.0  0.7761294164120887  0.8387635410048251  0.6528698850868571  1.0000
  C   C8        1.0  0.9906010037912263  0.09784751876540107  0.3203740335964208  1.0000
  C   C9        1.0  0.21781831003014518  0.16307278396783562  0.32488628114747103  1.0000
  C   C10       1.0  0.7691147009153373  0.5698647720780259  0.34668799671150097  1.0000
  C   C11       1.0  0.6568083871078604  0.7388227698981538  0.2991514834027494  1.0000
  C   C12       1.0  0.5199009357240394  0.810760773504834  0.15707515221434631  1.0000
  C   C13       1.0  0.3129776519354863  0.7340401102921857  0.15004336446608144  1.0000
  C   C14       1.0  0.1872129487532075  0.8077822342783141  0.004997290808849385  1.0000
  N   N1        1.0  0.49417778091471803  0.24471370329990344  0.5610226657011138  1.0000
  N   N2        1.0  0.5020479893137321  0.7580323671338357  0.4121685134966052  1.0000
  O   O1        1.0  0.09424114746277067  0.4638038209590554  0.7179914685199045  1.0000
  O   O2        1.0  0.23673795885631796  0.5279543998680153  0.49851467872112604  1.0000
  O   O3        1.0  0.20687177286661995  0.8026250643937852  0.6696103047199701  1.0000
  O   O4        1.0  0.9900838387125703  0.036501284396429204  0.6380178501156212  1.0000
  O   O5        1.0  0.5795932543210341  0.9227717598707185  0.6595531894076915  1.0000
  O   O6        1.0  0.7940600487239358  0.7137501161065175  0.6399170693196994  1.0000
  O   O7        1.0  0.7883976563061994  0.19556836061985844  0.3086806696058714  1.0000
  O   O8        1.0  0.008520273768064048  0.9655064721415132  0.3313517971043743  1.0000
  O   O9        1.0  0.416089491219753  0.07497238867864892  0.3283379628640058  1.0000
  O   O10       1.0  0.19667913495550493  0.2924790478337393  0.32930697566484707  1.0000
  O   O11       1.0  0.8773299064509297  0.5383280224681651  0.2446028210162799  1.0000
  O   O12       1.0  0.7623649882544055  0.4771681582063973  0.46953420648697436  1.0000
  S   S1        1.0  0.7004097777741912  0.23359633010290307  0.8495902770880809  1.0000
