data_image0
_chemical_formula_structural       H48C22N4O8S2
_chemical_formula_sum              "H48 C22 N4 O8 S2"
_cell_length_a       5.104964362831969
_cell_length_b       10.038031542257688
_cell_length_c       13.469558985775143
_cell_angle_alpha    85.19149196722424
_cell_angle_beta     86.37672773753695
_cell_angle_gamma    84.25678062874468

_space_group_name_H-M_alt    "P 1"
_space_group_IT_number       1

loop_
  _space_group_symop_operation_xyz
  'x, y, z'

loop_
  _atom_site_type_symbol
  _atom_site_label
  _atom_site_symmetry_multiplicity
  _atom_site_fract_x
  _atom_site_fract_y
  _atom_site_fract_z
  _atom_site_occupancy
  H   H1        1.0  0.46099960087648517  0.262832147829778  0.6054771113313161  1.0000
  H   H2        1.0  0.36948395700296766  0.38675397736933687  0.5186142704553012  1.0000
  H   H3        1.0  0.48912691945287073  0.4288746184756267  0.6231842076383226  1.0000
  H   H4        1.0  0.9789192833473509  0.3171609191935344  0.5952355517444381  1.0000
  H   H5        1.0  0.11226665858531772  0.210725824706363  0.7483272286585142  1.0000
  H   H6        1.0  0.8664614526353152  0.34281098686060313  0.7756336415784271  1.0000
  H   H7        1.0  0.1345504716232323  0.6080521489008918  0.7899833789410808  1.0000
  H   H8        1.0  0.9271189574382367  0.5280456080098466  0.8832308783716688  1.0000
  H   H9        1.0  0.2770520962564259  0.5288103713179234  0.007776030566860033  1.0000
  H   H10       1.0  0.18152505904387284  0.6943367058098119  0.956067641582726  1.0000
  H   H11       1.0  0.4832610670680435  0.6089092695983531  0.9146691030364538  1.0000
  H   H12       1.0  0.8874012866195158  0.6958328943160056  0.3870939526478315  1.0000
  H   H13       1.0  0.5881009569522075  0.5431288711773702  0.25027299040793316  1.0000
  H   H14       1.0  0.5561064327644788  0.7197349395328918  0.2505442437827379  1.0000
  H   H15       1.0  0.877941002967871  0.613004827960047  0.1157617626160998  1.0000
  H   H16       1.0  0.09272452238303273  0.5606391909261312  0.2121928163080045  1.0000
  H   H17       1.0  0.07888601327206603  0.8092325781796956  0.2501058046566815  1.0000
  H   H18       1.0  0.23180447282724276  0.7683332129061207  0.1340879819136799  1.0000
  H   H19       1.0  0.8127517492010207  0.8529522179427498  0.04886058677914461  1.0000
  H   H20       1.0  0.9387174653688988  0.9801875668395615  0.11097065128550973  1.0000
  H   H21       1.0  0.6642188858328119  0.9011675485028348  0.16514954944470836  1.0000
  H   H22       1.0  0.4259066592255277  0.7378233589603411  0.4256636218970485  1.0000
  H   H23       1.0  0.3754539984615164  0.5731872443011327  0.41736255037130965  1.0000
  H   H24       1.0  0.5507455178062438  0.6151321278756215  0.5105078463291742  1.0000
  H   H25       1.0  0.9607519960181506  0.7627232268019233  0.6023645823903484  1.0000
  H   H26       1.0  0.984871043133088  0.9284823589148273  0.6218978885989364  1.0000
  H   H27       1.0  0.8705516572817467  0.887491935164722  0.5156380774585543  1.0000
  H   H28       1.0  0.47721223449906763  0.8195105804281969  0.5873442571056927  1.0000
  H   H29       1.0  0.607302936315474  0.7034669134056143  0.7382320984937312  1.0000
  H   H30       1.0  0.35487343732535603  0.8309194064076968  0.7671471806237723  1.0000
  H   H31       1.0  0.7488498852268339  0.06386615167437379  0.9097303786318215  1.0000
  H   H32       1.0  0.5993016926119329  0.0947006149233769  0.7945996263654305  1.0000
  H   H33       1.0  0.20749817152420436  0.9751861717936204  0.8685553790108318  1.0000
  H   H34       1.0  0.25811751447991876  0.11297898176164052  0.9368958992924534  1.0000
  H   H35       1.0  0.3617789734921766  0.9453224519499384  0.9841162337298648  1.0000
  H   H36       1.0  0.9280130220919813  0.23518375948139142  0.42812579015579233  1.0000
  H   H37       1.0  0.03791750575570572  0.11005628828137135  0.512145249774022  1.0000
  H   H38       1.0  0.8951244144242282  0.07012126976972673  0.41083421893024696  1.0000
  H   H39       1.0  0.406121364655929  0.19189995649492322  0.4185290545527587  1.0000
  H   H40       1.0  0.19355407274785139  0.09008665424167477  0.23493281548315448  1.0000
  H   H41       1.0  0.12323703187636172  0.25789068727645603  0.2671516435690059  1.0000
  H   H42       1.0  0.5971711713704496  0.2897510841431638  0.26330675148431204  1.0000
  H   H43       1.0  0.6835299648812783  0.12257699312679916  0.23315878678673455  1.0000
  H   H44       1.0  0.35026686766141657  0.33463977021617863  0.10517856392494923  1.0000
  H   H45       1.0  0.44470483501289226  0.16901842917330956  0.07538440298879885  1.0000
  H   H46       1.0  0.8292907725288895  0.3816942725480409  0.09693556687826024  1.0000
  H   H47       1.0  0.7409340846226381  0.3259851988780674  0.9829231610632413  1.0000
  H   H48       1.0  0.9250698999104572  0.21449603794324737  0.06761995035534867  1.0000
  C   C1        1.0  0.9763290818614188  0.52394849812638  0.6224186164585892  1.0000
  C   C2        1.0  0.09413904955958521  0.37729119280237644  0.637591478253104  1.0000
  C   C3        1.0  0.07133969103701013  0.32047302658924876  0.7468767064490304  1.0000
  C   C4        1.0  0.13327461305260802  0.5403331279590184  0.8582665470955491  1.0000
  C   C5        1.0  0.27755375682002925  0.5954991454919807  0.9389113002540037  1.0000
  C   C6        1.0  0.9027415548285962  0.47719572219885814  0.4008381987349294  1.0000
  C   C7        1.0  0.7631961512691801  0.6171006584207296  0.3725917011506347  1.0000
  C   C8        1.0  0.6953590304384857  0.6296646669935857  0.26260985299509393  1.0000
  C   C9        1.0  0.9349816586152712  0.6379924276354948  0.18897021048211485  1.0000
  C   C10       1.0  0.04001100233612042  0.7767848530654083  0.17662909671808685  1.0000
  C   C11       1.0  0.853565058696174  0.8834223687894576  0.12255912111013154  1.0000
  C   C12       1.0  0.47387113619151433  0.023012776311902162  0.622511481094489  1.0000
  C   C13       1.0  0.5909263096072771  0.8758461142683853  0.6330919454158436  1.0000
  C   C14       1.0  0.5620852254379558  0.8125271555145394  0.7402445056383681  1.0000
  C   C15       1.0  0.6118629705700629  0.025213235474502577  0.8618830494726163  1.0000
  C   C16       1.0  0.34447078882116994  0.013571607886294738  0.9163231083897477  1.0000
  C   C17       1.0  0.4154562585817797  0.979147257338072  0.40033881486498024  1.0000
  C   C18       1.0  0.28771192794407574  0.1242401392946615  0.3846214038971387  1.0000
  C   C19       1.0  0.26951961749363246  0.16970899183821067  0.2735337771082267  1.0000
  C   C20       1.0  0.5317096130490215  0.20790052629690353  0.22407424144300037  1.0000
  C   C21       1.0  0.5089647971605035  0.2521033274460274  0.11349685108875604  1.0000
  C   C22       1.0  0.7647377847023726  0.2959497197179676  0.06238477841575741  1.0000
  N   N1        1.0  0.3693064834822439  0.3630226123517678  0.5949638313694624  1.0000
  N   N2        1.0  0.5145041541753896  0.6368897568438259  0.43557404086169704  1.0000
  N   N3        1.0  0.8678951749635992  0.8628652897455238  0.5919664912867494  1.0000
  N   N4        1.0  0.02154837808335312  0.13524385198303454  0.43638602046010855  1.0000
  O   O1        1.0  0.13293870379195588  0.6148876517452643  0.6080218481649978  1.0000
  O   O2        1.0  0.7263506182576285  0.5440653830629678  0.6264591086821116  1.0000
  O   O3        1.0  0.7550533225546221  0.38276896992990084  0.4210369777043001  1.0000
  O   O4        1.0  0.15280390435451113  0.46285050002388106  0.39950595072387957  1.0000
  O   O5        1.0  0.6312793843135059  0.11363724816514974  0.6084055254349978  1.0000
  O   O6        1.0  0.22406126081175592  0.04343275374989539  0.6298519156382347  1.0000
  O   O7        1.0  0.2607350779233715  0.8870129971111985  0.4155328093403462  1.0000
  O   O8        1.0  0.665441652042231  0.9596692978104999  0.3955340842941511  1.0000
  S   S1        1.0  0.29355822914321217  0.3762956524403443  0.8308631702413735  1.0000
  S   S2        1.0  0.7771195454975569  0.8643136385342646  0.8286173765945541  1.0000
