data_image0
_chemical_formula_structural       H42C26N4O6Cl2
_chemical_formula_sum              "H42 C26 N4 O6 Cl2"
_cell_length_a       8.746140898330017
_cell_length_b       9.3777754696995
_cell_length_c       9.871620110170857
_cell_angle_alpha    84.1476533389112
_cell_angle_beta     64.9517564093021
_cell_angle_gamma    89.64027691715548

_space_group_name_H-M_alt    "P 1"
_space_group_IT_number       1

loop_
  _space_group_symop_operation_xyz
  'x, y, z'

loop_
  _atom_site_type_symbol
  _atom_site_label
  _atom_site_symmetry_multiplicity
  _atom_site_fract_x
  _atom_site_fract_y
  _atom_site_fract_z
  _atom_site_occupancy
  H   H1        1.0  0.26952445779975437  0.3455261149507597  0.2164673589593472  1.0000
  H   H2        1.0  0.7304755420956796  0.6544738845125811  0.783532641476863  1.0000
  H   H3        1.0  0.02419807558197414  0.39149178565518494  0.44698601620504486  1.0000
  H   H4        1.0  0.9758019248195532  0.6085082150050901  0.5530139831219498  1.0000
  H   H5        1.0  0.03137891154103071  0.33144818244771407  0.6966841391959224  1.0000
  H   H6        1.0  0.9686210888604966  0.668551818212561  0.30331586013107226  1.0000
  H   H7        1.0  0.29889682509577603  0.2605727389091469  0.7069157736803039  1.0000
  H   H8        1.0  0.7011031747996581  0.7394272605541939  0.29308422675590623  1.0000
  H   H9        1.0  0.7493050503541493  0.2785252784239257  0.5920208502186874  1.0000
  H   H10       1.0  0.2506949495292863  0.7214747221040655  0.4079791502329994  1.0000
  H   H11       1.0  0.5422531583953878  0.2241860413679624  0.7227413987761583  1.0000
  H   H12       1.0  0.45774684086622863  0.7758139582279134  0.27725860055356205  1.0000
  H   H13       1.0  0.5777652414411804  0.39419452010198336  0.6148548765002366  1.0000
  H   H14       1.0  0.4222347589723454  0.6058054794936413  0.3851451228112814  1.0000
  H   H15       1.0  0.06962124923014801  0.02265290226074236  0.35513744639537725  1.0000
  H   H16       1.0  0.9303787511713794  0.9773470983995328  0.6448625529316174  1.0000
  H   H17       1.0  0.025407773744401483  0.11564852878101613  0.20802642017640685  1.0000
  H   H18       1.0  0.9745922261390343  0.8843514717469751  0.79197358027528  1.0000
  H   H19       1.0  0.9188178917253798  0.9467818412441972  0.30149558770993407  1.0000
  H   H20       1.0  0.08118210817005433  0.05321815821914364  0.6985044127262762  1.0000
  H   H21       1.0  0.46716422033511557  0.03400654804624304  0.1602570553400715  1.0000
  H   H22       1.0  0.5328357795603185  0.9659934514170978  0.8397429450961388  1.0000
  H   H23       1.0  0.5754119802408082  0.022604443025688748  0.2802244737437298  1.0000
  H   H24       1.0  0.42458802017271763  0.9773955565699359  0.7197755255677882  1.0000
  H   H25       1.0  0.8462304358868292  0.08989198937741175  0.06798451343791356  1.0000
  H   H26       1.0  0.15376956452669643  0.9101080102182129  0.9320154858736045  1.0000
  H   H27       1.0  0.7515805675138042  0.942172935709157  0.024856299755390745  1.0000
  H   H28       1.0  0.24841943236963135  0.057827064818834435  0.9751437006962962  1.0000
  H   H29       1.0  0.7415075073666817  0.3387123485788602  0.8198278107579061  1.0000
  H   H30       1.0  0.25849249304684396  0.6612876510167646  0.18017218855361197  1.0000
  H   H31       1.0  0.8387729719700536  0.32384326661326956  0.9485798688691126  1.0000
  H   H32       1.0  0.16122702843147368  0.6761567340470056  0.051420130457882046  1.0000
  H   H33       1.0  0.4634543133818588  0.27817018746046335  0.024009497921353446  1.0000
  H   H34       1.0  0.5365456865135753  0.7218298120028775  0.9759905025148569  1.0000
  H   H35       1.0  0.5582802249214736  0.42598654965218535  0.06621958333130298  1.0000
  H   H36       1.0  0.44171977497396064  0.5740134498111555  0.9337804171049071  1.0000
  H   H37       1.0  0.16705068000016748  0.47945286122417236  0.8624943064874915  1.0000
  H   H38       1.0  0.8329493204133582  0.5205471383714523  0.1375056928240265  1.0000
  H   H39       1.0  0.03444570616221243  0.6006504728199878  0.847121113594723  1.0000
  H   H40       1.0  0.965554294239315  0.3993495278402873  0.15287888573227157  1.0000
  H   H41       1.0  0.14536146695036734  0.504502617958768  0.7038013003681944  1.0000
  H   H42       1.0  0.8546385329330684  0.49549738256922343  0.2961987000834923  1.0000
  C   C1        1.0  0.4248740110105637  0.267844783827479  0.3274741832359794  1.0000
  C   C2        1.0  0.5751259888728718  0.7321552167005123  0.6725258172157075  1.0000
  C   C3        1.0  0.2781578522133246  0.3276361370784013  0.32364014574246974  1.0000
  C   C4        1.0  0.7218421482002011  0.6723638625172234  0.6763598535690483  1.0000
  C   C5        1.0  0.13951433661427495  0.35472936134472616  0.45337305288183466  1.0000
  C   C6        1.0  0.8604856632691606  0.6452706391832653  0.5466269475698521  1.0000
  C   C7        1.0  0.14550363958453277  0.3269972247676257  0.5927425964086606  1.0000
  C   C8        1.0  0.854496360298903  0.6730027757603656  0.4072574040430261  1.0000
  C   C9        1.0  0.29436340579125575  0.27859889747255895  0.5978701813372636  1.0000
  C   C10       1.0  0.70563659462227  0.7214011021230657  0.4021298179742545  1.0000
  C   C11       1.0  0.4372895125100746  0.2493005483204816  0.4684258463366811  1.0000
  C   C12       1.0  0.5627104873853594  0.7506994511428592  0.531574154099529  1.0000
  C   C13       1.0  0.5922168944453217  0.2160069069336252  0.48884327185907456  1.0000
  C   C14       1.0  0.4077831054501125  0.7839930925297156  0.5111567285771356  1.0000
  C   C15       1.0  0.6166481999786997  0.28250108930784146  0.6113551859035455  1.0000
  C   C16       1.0  0.3833517999167343  0.7174989101554996  0.38864481453266464  1.0000
  C   C17       1.0  0.9717069808796611  0.046738405511453245  0.3154954804220805  1.0000
  C   C18       1.0  0.028293019015773083  0.9532615939518876  0.6845045200141296  1.0000
  C   C19       1.0  0.5743939416373053  0.07782830102912408  0.17739093337752226  1.0000
  C   C20       1.0  0.42560605877622054  0.9221716985665005  0.8226090659339959  1.0000
  C   C21       1.0  0.7400146259238459  0.05548075865495807  0.0446994284939774  1.0000
  C   C22       1.0  0.25998537397158805  0.9445192408083828  0.9553005719422328  1.0000
  C   C23       1.0  0.7339606251537943  0.28324840984570343  0.9261808652716752  1.0000
  C   C24       1.0  0.26603937525973137  0.7167515897499213  0.07381913403984273  1.0000
  C   C25       1.0  0.5658800953134876  0.3107084115816164  0.05385816747354264  1.0000
  C   C26       1.0  0.43411990510003823  0.6892915880140084  0.9461418318379754  1.0000
  N   N1        1.0  0.7037292149169698  0.13716512763232452  0.39818866629807537  1.0000
  N   N2        1.0  0.296270785496556  0.8628348719633003  0.6018113330134426  1.0000
  N   N3        1.0  0.5547878845997153  0.23207356344215951  0.19360396158785  1.0000
  N   N4        1.0  0.44521211528372034  0.7679264370858319  0.8063960388638368  1.0000
  O   O1        1.0  0.8450697163838455  0.12024433855435425  0.4300923468213141  1.0000
  O   O2        1.0  0.15493028235967907  0.8797556609092378  0.5699076536330984  1.0000
  O   O3        1.0  0.7515569235794726  0.13424348415239803  0.9076192962680576  1.0000
  O   O4        1.0  0.24844307631596152  0.8657565153109428  0.09238070416815274  1.0000
  O   O5        1.0  0.15082308153238022  0.55763058601093  0.7839522715751058  1.0000
  O   O6        1.0  0.8491769183510554  0.44236941451706135  0.21604772887658094  1.0000
  Cl  Cl1       1.0  0.1659225871966092  0.3459602678065395  0.00505267539040164  1.0000
  Cl  Cl2       1.0  0.8340774132049181  0.6540397328537356  0.9949473239365929  1.0000
