data_image0
_chemical_formula_structural       H88C128N24O32
_chemical_formula_sum              "H88 C128 N24 O32"
_cell_length_a       16.09676117013144
_cell_length_b       12.59212073613055
_cell_length_c       14.570337487223517
_cell_angle_alpha    90.0
_cell_angle_beta     98.10740576053917
_cell_angle_gamma    90.0

_space_group_name_H-M_alt    "P 1"
_space_group_IT_number       1

loop_
  _space_group_symop_operation_xyz
  'x, y, z'

loop_
  _atom_site_type_symbol
  _atom_site_label
  _atom_site_symmetry_multiplicity
  _atom_site_fract_x
  _atom_site_fract_y
  _atom_site_fract_z
  _atom_site_occupancy
  H   H1        1.0  0.03179804026488251  0.5877889296886157  0.5534981204408564  1.0000
  H   H2        1.0  0.9682019594129411  0.08778892953497004  0.9465018799333613  1.0000
  H   H3        1.0  0.9682019596241801  0.4122110706186756  0.44650187969272376  1.0000
  H   H4        1.0  0.03179804047612148  0.9122110707723213  0.05349812020021879  1.0000
  H   H5        1.0  0.09446144955123605  0.5739073212079687  0.4058921825870803  1.0000
  H   H6        1.0  0.9055385505490656  0.0739073210543231  0.09410781730586236  1.0000
  H   H7        1.0  0.9055385503378267  0.4260926790993225  0.5941078175465  1.0000
  H   H8        1.0  0.09446144933999706  0.9260926784588208  0.9058921828277179  1.0000
  H   H9        1.0  0.1269578354838172  0.7393911498390728  0.3251488892397061  1.0000
  H   H10       1.0  0.8730421646164844  0.23939115047957457  0.17485111065323655  1.0000
  H   H11       1.0  0.8730421650326395  0.2606088496740711  0.6748511109781655  1.0000
  H   H12       1.0  0.12695783527257826  0.7606088498277168  0.8251488894803436  1.0000
  H   H13       1.0  0.0938239204614895  0.9169138743143875  0.3954494785022397  1.0000
  H   H14       1.0  0.9061760796388122  0.4169138741607419  0.10455052139070288  1.0000
  H   H15       1.0  0.9061760794152676  0.08308612599290385  0.6045505209432293  1.0000
  H   H16       1.0  0.09382392025025053  0.5830861253524021  0.8954494787428774  1.0000
  H   H17       1.0  0.03072192988234871  0.9148625693323852  0.542971455757633  1.0000
  H   H18       1.0  0.9692780704105634  0.4148625691787395  0.957028544012765  1.0000
  H   H19       1.0  0.969278070006714  0.08513743097490621  0.45702854437594737  1.0000
  H   H20       1.0  0.03072193010589333  0.5851374303344045  0.04297145620510647  1.0000
  H   H21       1.0  0.5909205135291611  0.15868624371322765  0.01741664741944657  1.0000
  H   H22       1.0  0.4090794865711405  0.6586862438668734  0.482583352473496  1.0000
  H   H23       1.0  0.40907948697498997  0.8413137557999163  0.9825833521103138  1.0000
  H   H24       1.0  0.5909205133179221  0.34131375644041806  0.5174166476600841  1.0000
  H   H25       1.0  0.0483262573476678  0.29152079597419944  0.21494825829081604  1.0000
  H   H26       1.0  0.9516737427526339  0.7915207961278451  0.2850517416021266  1.0000
  H   H27       1.0  0.9516737431687889  0.7084792043330919  0.7850517419270555  1.0000
  H   H28       1.0  0.04832625713642882  0.20847920417944626  0.7149482585314536  1.0000
  H   H29       1.0  0.07229862451229738  0.5245933023057947  0.18697436862290964  1.0000
  H   H30       1.0  0.9277013755880043  0.02459330294629644  0.31302563127003297  1.0000
  H   H31       1.0  0.9277013753644596  0.4754066972073492  0.8130256308225594  1.0000
  H   H32       1.0  0.07229862492845246  0.975406697360995  0.6869743689478386  1.0000
  H   H33       1.0  0.2998315405418037  0.5970475893253105  0.3509603942112217  1.0000
  H   H34       1.0  0.7001684595708035  0.09704758996581228  0.14903960636983207  1.0000
  H   H35       1.0  0.700168459347259  0.4029524101878334  0.6490396059223585  1.0000
  H   H36       1.0  0.2998315409456531  0.902952410341479  0.8509603938480396  1.0000
  H   H37       1.0  0.20262552142819998  0.47428678736090557  0.8799205236812675  1.0000
  H   H38       1.0  0.7973744788770177  0.9742867875145512  0.6200794767772416  1.0000
  H   H39       1.0  0.7973744784608626  0.5257132129463857  0.12007947645231273  1.0000
  H   H40       1.0  0.20262552163943895  0.025713212792740105  0.3799205234406299  1.0000
  H   H41       1.0  0.42005346326077003  0.5840420898203619  0.04209312312344843  1.0000
  H   H42       1.0  0.5799465368395316  0.0840420896667162  0.4579068767694942  1.0000
  H   H43       1.0  0.5799465366282925  0.4159579104869295  0.9579068770101318  1.0000
  H   H44       1.0  0.42005346304953106  0.9159579098464278  0.542093123364086  1.0000
  H   H45       1.0  0.38900200561535647  0.2324756767619394  0.41453369352560115  1.0000
  H   H46       1.0  0.6109979944849452  0.7324756769155851  0.08546630636734148  1.0000
  H   H47       1.0  0.6109979942737062  0.7675243235453519  0.5854663066079789  1.0000
  H   H48       1.0  0.38900200540411756  0.2675243233917063  0.9145336937662387  1.0000
  H   H49       1.0  0.461801884178586  0.07275229480379898  0.3630797189778528  1.0000
  H   H50       1.0  0.5381981159217156  0.5727522941632972  0.13692028091508984  1.0000
  H   H51       1.0  0.5381981157104767  0.9272477055034923  0.6369202811557273  1.0000
  H   H52       1.0  0.46180188396734706  0.4272477053498467  0.8630797192184902  1.0000
  H   H53       1.0  0.5242870841554669  0.07961986396169872  0.21639595863278419  1.0000
  H   H54       1.0  0.4757129159448347  0.5796198641153444  0.2836040412601584  1.0000
  H   H55       1.0  0.4757129157212901  0.9203801363455927  0.7836040408126849  1.0000
  H   H56       1.0  0.524287083944228  0.420380136191947  0.7163959588734217  1.0000
  H   H57       1.0  0.1488167823829188  0.9792618557586357  0.19501404370198228  1.0000
  H   H58       1.0  0.8511832177173829  0.4792618563991374  0.3049859561909603  1.0000
  H   H59       1.0  0.8511832175061439  0.020738143754508283  0.8049859564315979  1.0000
  H   H60       1.0  0.1488167821716798  0.520738143908154  0.6950140439426199  1.0000
  H   H61       1.0  0.2208481366889007  0.9520265284308114  0.0562811618298177  1.0000
  H   H62       1.0  0.779151863411401  0.4520265282771656  0.4437188380631249  1.0000
  H   H63       1.0  0.779151863200162  0.04797347187648004  0.9437188383037625  1.0000
  H   H64       1.0  0.22084813647766172  0.5479734720301257  0.5562811620704553  1.0000
  H   H65       1.0  0.24096964232641618  0.10655590969280308  0.9536114391560034  1.0000
  H   H66       1.0  0.7590303573514076  0.6065559098464487  0.5463885612182142  1.0000
  H   H67       1.0  0.7590303575626465  0.8934440898203408  0.04638856097757667  1.0000
  H   H68       1.0  0.24096964253765515  0.3934440896666952  0.4536114389153659  1.0000
  H   H69       1.0  0.4411822554581642  0.9567451196232793  0.1337017295201468  1.0000
  H   H70       1.0  0.5588177446421374  0.4567451194696337  0.36629827037279583  1.0000
  H   H71       1.0  0.5588177444308985  0.043254880684011975  0.8662982706134335  1.0000
  H   H72       1.0  0.44118225524692517  0.5432548808376576  0.6337017297607843  1.0000
  H   H73       1.0  0.37879385975486296  0.946645071135412  0.2826165558043232  1.0000
  H   H74       1.0  0.6212061403454388  0.4466450709817662  0.21738344408861943  1.0000
  H   H75       1.0  0.6212061401341998  0.05335492917187945  0.717383444329257  1.0000
  H   H76       1.0  0.3787938595313184  0.5533549293255251  0.7826165553568496  1.0000
  H   H77       1.0  0.2627669546589767  0.8183437370031555  0.2936115804991924  1.0000
  H   H78       1.0  0.7372330448139308  0.31834373684950984  0.2063884193094588  1.0000
  H   H79       1.0  0.7372330452300859  0.18165626330413584  0.7063884196343878  1.0000
  H   H80       1.0  0.26276695506282616  0.6816562634577815  0.7936115801360102  1.0000
  H   H81       1.0  0.21184917218836205  0.7041682378853003  0.1544896579771566  1.0000
  H   H82       1.0  0.7881508279119396  0.20416823773165463  0.345510341915786  1.0000
  H   H83       1.0  0.7881508277007007  0.29583176242199105  0.8455103421564236  1.0000
  H   H84       1.0  0.21184917196481742  0.7958317617814893  0.6544896575296829  1.0000
  H   H85       1.0  0.284153120661821  0.7201850172846039  0.01307899674208478  1.0000
  H   H86       1.0  0.7158468794384807  0.22018501713095825  0.48692100315085785  1.0000
  H   H87       1.0  0.7158468792272417  0.2798149830226874  0.9869210033914954  1.0000
  H   H88       1.0  0.28415312045058205  0.7798149823821856  0.5130789969827223  1.0000
  C   C1        1.0  0.04736692043232878  0.659140453298299  0.5166999551903891  1.0000
  C   C2        1.0  0.9526330798728889  0.15914045314465322  0.98330004526812  1.0000
  C   C3        1.0  0.9526330794567338  0.3408595470089924  0.483300044943191  1.0000
  C   C4        1.0  0.047366920016173694  0.8408595471626382  0.01669995486546015  1.0000
  C   C5        1.0  0.08247006327282397  0.651273293184772  0.4347797504647699  1.0000
  C   C6        1.0  0.9175299368397832  0.1512732930311264  0.06522025011628388  1.0000
  C   C7        1.0  0.9175299366162386  0.3487267071225193  0.5652202496688103  1.0000
  C   C8        1.0  0.08247006367667341  0.8487267064820175  0.9347797501015878  1.0000
  C   C9        1.0  0.10108685417543034  0.744645156799963  0.3901608750214658  1.0000
  C   C10       1.0  0.8989131459248713  0.2446451566463174  0.10983912487147679  1.0000
  C   C11       1.0  0.8989131457136323  0.2553548435073283  0.6098391251121144  1.0000
  C   C12       1.0  0.10108685396419137  0.7553548436609739  0.8901608752621034  1.0000
  C   C13       1.0  0.08308560215571895  0.8418161255065416  0.4289815450186134  1.0000
  C   C14       1.0  0.9169143973171887  0.3418161253528959  0.07101845479003782  1.0000
  C   C15       1.0  0.9169143977333437  0.15818387480074977  0.5710184551149668  1.0000
  C   C16       1.0  0.08308560255956839  0.6581838741602482  0.9289815446554313  1.0000
  C   C17       1.0  0.04763422282478417  0.840760358945961  0.5111934251109804  1.0000
  C   C18       1.0  0.9523657768407339  0.3407603587923153  0.9888065745751261  1.0000
  C   C19       1.0  0.9523657770642785  0.15923964136133034  0.4888065750225998  1.0000
  C   C20       1.0  0.04763422304832878  0.659239641514976  0.01119342555845406  1.0000
  C   C21       1.0  0.16949538005346032  0.4017956209300712  0.1977708752334969  1.0000
  C   C22       1.0  0.8305046200591469  0.9017956210837169  0.3022291253475569  1.0000
  C   C23       1.0  0.8305046198356023  0.5982043793772202  0.8022291249000834  1.0000
  C   C24       1.0  0.16949537982991575  0.09820437922357446  0.6977708747860234  1.0000
  C   C25       1.0  0.13588665405475098  0.5009191670074696  0.2158969049219465  1.0000
  C   C26       1.0  0.8641133460455507  0.0009191668538239151  0.2841030949709961  1.0000
  C   C27       1.0  0.8641133458220059  0.4990808332998217  0.7841030945235224  1.0000
  C   C28       1.0  0.13588665384351203  0.9990808334534675  0.715896905162584  1.0000
  C   C29       1.0  0.26063166097637136  0.5406759268488494  0.30766866935474024  1.0000
  C   C30       1.0  0.7393683391239302  0.040675926695203646  0.19233133053820242  1.0000
  C   C31       1.0  0.7393683389003857  0.45932407345844206  0.6923313300907287  1.0000
  C   C32       1.0  0.2606316607651324  0.9593240736120877  0.8076686695953778  1.0000
  C   C33       1.0  0.2909865438335637  0.43982203363957495  0.2885456425818364  1.0000
  C   C34       1.0  0.709013456266738  0.9398220329990733  0.21145435731110618  1.0000
  C   C35       1.0  0.7090134566828931  0.5601779666677165  0.7114543576360352  1.0000
  C   C36       1.0  0.2909865436100191  0.06017796651407074  0.7885456421343627  1.0000
  C   C37       1.0  0.2544146322832468  0.3725540056600171  0.994422781691891  1.0000
  C   C38       1.0  0.7455853680219711  0.8725540058136627  0.5055772187666181  1.0000
  C   C39       1.0  0.7455853676058158  0.6274459946472742  0.005577218441689152  1.0000
  C   C40       1.0  0.2544146324944858  0.12744599449362856  0.49442278145125346  1.0000
  C   C41       1.0  0.25244506054173854  0.46290128502938527  0.937984554923441  1.0000
  C   C42       1.0  0.7475549391237795  0.962901285183031  0.5620154447626655  1.0000
  C   C43       1.0  0.7475549393350185  0.5370987152779061  0.06201544452202795  1.0000
  C   C44       1.0  0.25244506076528317  0.03709871512426045  0.4379845553709147  1.0000
  C   C45       1.0  0.37216732338367936  0.5228435946543439  0.02877798423663143  1.0000
  C   C46       1.0  0.6278326767166224  0.02284359450069823  0.4712220156563112  1.0000
  C   C47       1.0  0.6278326764930776  0.4771564056529475  0.9712220152088377  1.0000
  C   C48       1.0  0.3721673237998344  0.9771564058065931  0.5287779845615604  1.0000
  C   C49       1.0  0.3718248558936169  0.4310844911472839  0.08314036859175176  1.0000
  C   C50       1.0  0.6281751442066847  0.9310844905067821  0.4168596313011908  1.0000
  C   C51       1.0  0.6281751439954457  0.5689155091600074  0.9168596315418284  1.0000
  C   C52       1.0  0.3718248556823779  0.06891550900636179  0.5831403688323894  1.0000
  C   C53       1.0  0.43636520558498  0.3249981655796579  0.2082035039418462  1.0000
  C   C54       1.0  0.5636347945153216  0.8249981657333035  0.2917964959510964  1.0000
  C   C55       1.0  0.5636347943040827  0.6750018339334861  0.791796496191734  1.0000
  C   C56       1.0  0.4363652053614353  0.1750018337798404  0.7082035034943726  1.0000
  C   C57       1.0  0.4049797389974915  0.3215393192969162  0.2930228635240766  1.0000
  C   C58       1.0  0.5950202611028103  0.8215393194505619  0.20697713636886603  1.0000
  C   C59       1.0  0.5950202615189654  0.6784606810103752  0.706977136693795  1.0000
  C   C60       1.0  0.4049797387739469  0.1784606808567295  0.7930228630766029  1.0000
  C   C61       1.0  0.4131647905375767  0.23171071506868293  0.3485073313641019  1.0000
  C   C62       1.0  0.5868352089476365  0.7317107144281813  0.15149266913266057  1.0000
  C   C63       1.0  0.586835209351486  0.7682892852386085  0.6514926687694783  1.0000
  C   C64       1.0  0.4131647909414261  0.26828928508496275  0.8485073310009197  1.0000
  C   C65       1.0  0.45465742089801786  0.14334958882825038  0.31967854953303737  1.0000
  C   C66       1.0  0.5453425792022838  0.6433495889818961  0.18032145035990524  1.0000
  C   C67       1.0  0.5453425789787392  0.8566504114790409  0.6803214499124316  1.0000
  C   C68       1.0  0.4546574213141729  0.35665041132539527  0.8196785498579664  1.0000
  C   C69       1.0  0.4885596755477034  0.14666675921402575  0.23712885572166595  1.0000
  C   C70       1.0  0.5114403245525982  0.6466667593676714  0.2628711441712766  1.0000
  C   C71       1.0  0.5114403243413592  0.8533332402991182  0.7628711444119142  1.0000
  C   C72       1.0  0.4885596753364644  0.35333324093961993  0.7371288559623035  1.0000
  C   C73       1.0  0.47999577416069866  0.23686799487570262  0.17981298311036634  1.0000
  C   C74       1.0  0.5200042259396029  0.7368679950293483  0.3201870167825763  1.0000
  C   C75       1.0  0.520004225728364  0.7631320054315887  0.8201870170232138  1.0000
  C   C76       1.0  0.4799957739494597  0.26313200527794306  0.6798129833510038  1.0000
  C   C77       1.0  0.18696210062091967  0.21780083811702472  0.03903762347354932  1.0000
  C   C78       1.0  0.8130378994793819  0.7178008374765229  0.46096237641939325  1.0000
  C   C79       1.0  0.8130378992558374  0.7821991621902666  0.9609623759719197  1.0000
  C   C80       1.0  0.18696210040968067  0.282199162036621  0.5390376237141868  1.0000
  C   C81       1.0  0.14965416753791858  0.2335197669732313  0.11912471075998886  1.0000
  C   C82       1.0  0.850345831934989  0.7335197671268769  0.3808752890486623  1.0000
  C   C83       1.0  0.8503458323511441  0.7664802333340601  0.8808752893735913  1.0000
  C   C84       1.0  0.14965416795407369  0.26648023318041436  0.6191247110849178  1.0000
  C   C85       1.0  0.1335488868364399  0.1465428118637179  0.17455122663837203  1.0000
  C   C86       1.0  0.8664511126364677  0.6465428120173635  0.32544877317027915  1.0000
  C   C87       1.0  0.8664511130403172  0.8534571884435735  0.8254487728070969  1.0000
  C   C88       1.0  0.13354888725259498  0.3534571882899278  0.674551226963301  1.0000
  C   C89       1.0  0.16144543632319724  0.04591899824633362  0.15144735145457222  1.0000
  C   C90       1.0  0.8385545637771045  0.5459189983999793  0.34855264843837036  1.0000
  C   C91       1.0  0.8385545635535597  0.9540810012668103  0.8485526479908967  1.0000
  C   C92       1.0  0.16144543611195825  0.45408100190731204  0.6514473516952098  1.0000
  C   C93       1.0  0.20109583110078436  0.03112842373527383  0.07374248317790727  1.0000
  C   C94       1.0  0.7989041689995172  0.5311284238889196  0.4262575167150353  1.0000
  C   C95       1.0  0.7989041687759726  0.9688715757778701  0.9262575162675617  1.0000
  C   C96       1.0  0.20109583088954544  0.46887157562422443  0.5737424834185448  1.0000
  C   C97       1.0  0.21257307550530302  0.11677527168087304  0.01650128954472031  1.0000
  C   C98       1.0  0.7874269246073042  0.6167752718345187  0.48349871103633346  1.0000
  C   C99       1.0  0.7874269250111536  0.8832247278322709  0.9834987106731513  1.0000
  C   C100      1.0  0.21257307528175842  0.38322472767862525  0.5165012890972467  1.0000
  C   C101      1.0  0.5188051984395813  0.23886836959635832  0.09248503669405166  1.0000
  C   C102      1.0  0.4811948016607204  0.738868369750004  0.4075149631988909  1.0000
  C   C103      1.0  0.4811948020768754  0.7611316299167855  0.9075149635238199  1.0000
  C   C104      1.0  0.5188051982283424  0.26113163055728733  0.5924850369346892  1.0000
  C   C105      1.0  0.08224968636568944  0.1512421950129128  0.2529201992845384  1.0000
  C   C106      1.0  0.9177503137469177  0.6512421951665585  0.24707980129651538  1.0000
  C   C107      1.0  0.9177503135233733  0.8487578045002311  0.7470798008490418  1.0000
  C   C108      1.0  0.08224968614214483  0.34875780434658543  0.7529201988370648  1.0000
  C   C109      1.0  0.3908812407448578  0.901146199896344  0.14217568950717352  1.0000
  C   C110      1.0  0.6091187587280498  0.4011461997426984  0.35782431030147765  1.0000
  C   C111      1.0  0.6091187591442049  0.09885380041094728  0.8578243106264067  1.0000
  C   C112      1.0  0.39088124116101286  0.5988538005645929  0.6421756898321026  1.0000
  C   C113      1.0  0.35587158046095546  0.8957001633281565  0.22423607040861793  1.0000
  C   C114      1.0  0.6441284190242578  0.39570016317451084  0.2757639300881445  1.0000
  C   C115      1.0  0.6441284194281073  0.10429983618498746  0.7757639297249622  1.0000
  C   C116      1.0  0.3558715808648049  0.6042998363386332  0.7242360700454357  1.0000
  C   C117      1.0  0.29092206104760043  0.8237705758519862  0.2298615683284135  1.0000
  C   C118      1.0  0.7090779390527012  0.32377057569834056  0.2701384315645291  1.0000
  C   C119      1.0  0.7090779388291566  0.17622942445530515  0.7701384311170555  1.0000
  C   C120      1.0  0.2909220608363615  0.6762294238148033  0.729861568569051  1.0000
  C   C121      1.0  0.26307131504848247  0.760255390700913  0.15312142119933525  1.0000
  C   C122      1.0  0.7369286850518191  0.2602553905472673  0.34687857869360733  1.0000
  C   C123      1.0  0.7369286848405802  0.2397446096063783  0.8468785789342449  1.0000
  C   C124      1.0  0.26307131483724355  0.739744609760024  0.6531214214399729  1.0000
  C   C125      1.0  0.3023312704453929  0.7696264221953475  0.07414456516495516  1.0000
  C   C126      1.0  0.6976687296549088  0.26962642204170173  0.4258554347279874  1.0000
  C   C127      1.0  0.6976687294313642  0.2303735781119439  0.9258554342805139  1.0000
  C   C128      1.0  0.30233127086154793  0.7303735774714423  0.5741445654898841  1.0000
  N   N1        1.0  0.030240175666069548  0.7518292580245037  0.5551725801206148  1.0000
  N   N2        1.0  0.9697598240117542  0.25182925787085814  0.944827420253603  1.0000
  N   N3        1.0  0.9697598242229932  0.24817074228278757  0.44482742001296544  1.0000
  N   N4        1.0  0.030240175877308522  0.7481707416422859  0.05517257987997719  1.0000
  N   N5        1.0  0.18298359393648367  0.5690155026421528  0.27139947444694584  1.0000
  N   N6        1.0  0.817016406163818  0.06901550328265452  0.2286005254459967  1.0000
  N   N7        1.0  0.8170164059402734  0.43098449687099116  0.7286005249985232  1.0000
  N   N8        1.0  0.1829835937252447  0.9309844970246368  0.7713994746875834  1.0000
  N   N9        1.0  0.2448081408702138  0.3696941974708633  0.23543977594046267  1.0000
  N   N10       1.0  0.7551918586026939  0.8696941976245091  0.26456022386818856  1.0000
  N   N11       1.0  0.7551918590188489  0.6303058028364281  0.7645602241931175  1.0000
  N   N12       1.0  0.2448081412740632  0.13030580268278238  0.7354397755772805  1.0000
  N   N13       1.0  0.3122455404918926  0.5367035252932897  0.9560264179459368  1.0000
  N   N14       1.0  0.6877544598010195  0.036703525139643985  0.5439735818244612  1.0000
  N   N15       1.0  0.6877544593848643  0.46329647501400173  0.04397358149953219  1.0000
  N   N16       1.0  0.31224554071543725  0.9632964743735  0.45602641839341046  1.0000
  N   N17       1.0  0.31464247878351737  0.35521884627152184  0.06474265179649001  1.0000
  N   N18       1.0  0.6853575213290899  0.8552188456310201  0.43525734878456385  1.0000
  N   N19       1.0  0.6853575211055453  0.6447811540357695  0.9352573483370903  1.0000
  N   N20       1.0  0.31464247855997274  0.14478115388212387  0.5647426513490164  1.0000
  N   N21       1.0  0.3650948551141943  0.838915340105462  0.0687804738339638  1.0000
  N   N22       1.0  0.6349051449861073  0.3389153399518162  0.43121952605897884  1.0000
  N   N23       1.0  0.6349051447748684  0.16108466020182943  0.9312195262996164  1.0000
  N   N24       1.0  0.36509485490295535  0.6610846603554752  0.5687804740746013  1.0000
  O   O1        1.0  0.37042149153203524  0.41320537175844113  0.3267128038573652  1.0000
  O   O2        1.0  0.6295785085682665  0.9132053711179394  0.17328719603557746  1.0000
  O   O3        1.0  0.6295785083447218  0.5867946285488501  0.6732871955881039  1.0000
  O   O4        1.0  0.3704214919481903  0.08679462839520449  0.8267128041822941  1.0000
  O   O5        1.0  0.12013260669189613  0.33531013706730595  0.1369714251924644  1.0000
  O   O6        1.0  0.8798673934084055  0.8353101372209516  0.3630285747004782  1.0000
  O   O7        1.0  0.8798673931971666  0.6646898624458379  0.8630285749411157  1.0000
  O   O8        1.0  0.12013260710805121  0.16468986308633976  0.6369714255173934  1.0000
  O   O9        1.0  0.19125017552012163  0.2997780397045316  0.9760000971468363  1.0000
  O   O10       1.0  0.8087498247727906  0.7997780398581773  0.5239999026235616  1.0000
  O   O11       1.0  0.8087498243689409  0.7002219598086123  0.02399990298674378  1.0000
  O   O12       1.0  0.19125017574366626  0.20022196044911408  0.47600009759431  1.0000
  O   O13       1.0  0.4302636064803135  0.4213766069424217  0.16072521281423532  1.0000
  O   O14       1.0  0.5697363936199882  0.9213766070960673  0.3392747870787073  1.0000
  O   O15       1.0  0.5697363934087493  0.5786233933648697  0.8392747873193448  1.0000
  O   O16       1.0  0.4302636062690745  0.07862339321122402  0.660725213054873  1.0000
  O   O17       1.0  0.563932005628631  0.1526624132886705  0.08048910050396958  1.0000
  O   O18       1.0  0.43606799448397626  0.6526624126481688  0.4195109000770842  1.0000
  O   O19       1.0  0.43606799426043164  0.8473375870186208  0.9195108996296106  1.0000
  O   O20       1.0  0.5639320054050864  0.3473375868649752  0.5804891000564959  1.0000
  O   O21       1.0  0.5094608451784917  0.31354270759742076  0.03715564499232445  1.0000
  O   O22       1.0  0.49053915492181005  0.8135427077510664  0.4628443549006182  1.0000
  O   O23       1.0  0.490539154710571  0.6864572927098705  0.9628443551412557  1.0000
  O   O24       1.0  0.5094608455946467  0.1864572925562249  0.5371556453172535  1.0000
  O   O25       1.0  0.04226992164740567  0.24224513042092666  0.26611086652855764  1.0000
  O   O26       1.0  0.9577300784528959  0.7422451305745723  0.233889133364385  1.0000
  O   O27       1.0  0.957730078241657  0.7577548698863648  0.7338891336050226  1.0000
  O   O28       1.0  0.042269921423861045  0.25775486973271905  0.7661108660810839  1.0000
  O   O29       1.0  0.07389284681048497  0.07373463608365247  0.30193505910444307  1.0000
  O   O30       1.0  0.9261071526624226  0.5737346362372981  0.1980649407042082  1.0000
  O   O31       1.0  0.9261071530785777  0.9262653634294915  0.6980649410291372  1.0000
  O   O32       1.0  0.07389284722664004  0.4262653640699932  0.8019350594293722  1.0000
