data_image0
_chemical_formula_structural       H26C52N14S2
_chemical_formula_sum              "H26 C52 N14 S2"
_cell_length_a       19.869434467834154
_cell_length_b       6.804184027064193
_cell_length_c       7.613012191982592
_cell_angle_alpha    80.70896583334358
_cell_angle_beta     86.17824265217695
_cell_angle_gamma    87.86941680426553

_space_group_name_H-M_alt    "P 1"
_space_group_IT_number       1

loop_
  _space_group_symop_operation_xyz
  'x, y, z'

loop_
  _atom_site_type_symbol
  _atom_site_label
  _atom_site_symmetry_multiplicity
  _atom_site_fract_x
  _atom_site_fract_y
  _atom_site_fract_z
  _atom_site_occupancy
  H   H1        1.0  0.8636191272986845  0.0928372545204423  0.3500044710878714  1.0000
  H   H2        1.0  0.1363808724986366  0.9071627456183612  0.6499955288957339  1.0000
  H   H3        1.0  0.9789163469904674  0.2121346314547641  0.36817702211155523  1.0000
  H   H4        1.0  0.0210836528068538  0.7878653686840392  0.63182297787205  1.0000
  H   H5        1.0  0.0507539035552352  0.3138872655052875  0.09178911539194087  1.0000
  H   H6        1.0  0.9492460967465776  0.6861127346227522  0.908210884507365  1.0000
  H   H7        1.0  0.00857160853117949  0.28303561358921864  0.79698631010841  1.0000
  H   H8        1.0  0.9914283912661418  0.7169643865495847  0.20301368987519502  1.0000
  H   H9        1.0  0.6564992465304114  0.9320473305650427  0.45185543741766043  1.0000
  H   H10       1.0  0.34350075326690976  0.0679526695737607  0.5481445625659448  1.0000
  H   H11       1.0  0.5529654011020997  0.8390165220164877  0.6459828604089207  1.0000
  H   H12       1.0  0.4470345986952214  0.16098347812231556  0.35401713957468445  1.0000
  H   H13       1.0  0.5520510838813008  0.8304230062516194  0.9729954367229262  1.0000
  H   H14       1.0  0.4479489164205118  0.1695769938764203  0.027004563176379576  1.0000
  H   H15       1.0  0.6534114092715707  0.91616485321178  0.11760331946288492  1.0000
  H   H16       1.0  0.3465885905257504  0.08383514692702335  0.8823966805207202  1.0000
  H   H17       1.0  0.7744502241426434  0.05161695102860593  0.31450932726484115  1.0000
  H   H18       1.0  0.22554977565467774  0.9483830491101974  0.685490672718764  1.0000
  H   H19       1.0  0.30596423781613746  0.5518825236240662  0.09183104992450945  1.0000
  H   H20       1.0  0.6940357619811837  0.4481174765147372  0.9081689500590957  1.0000
  H   H21       1.0  0.2033006400417719  0.4513667255142386  0.2725699239802128  1.0000
  H   H22       1.0  0.7966993602600407  0.548633274613801  0.7274300759190931  1.0000
  H   H23       1.0  0.30088590667502385  0.5344107947107721  0.7512374973843725  1.0000
  H   H24       1.0  0.6991140931215883  0.46558920542443527  0.24876250391341012  1.0000
  H   H25       1.0  0.40323662622476447  0.6348893083093302  0.5712291193952035  1.0000
  H   H26       1.0  0.596763374077048  0.3651106918187092  0.4287708805041023  1.0000
  C   C1        1.0  0.8952961158484204  0.13519052707078644  0.22827639512708475  1.0000
  C   C2        1.0  0.10470388395879424  0.864809471578303  0.7717236050665754  1.0000
  C   C3        1.0  0.9596410202291901  0.2024276682160154  0.23947759715963973  1.0000
  C   C4        1.0  0.04035898007262259  0.7975723319120241  0.7605224027396662  1.0000
  C   C5        1.0  0.0004530239803789717  0.2588861529933879  0.08383879194680136  1.0000
  C   C6        1.0  0.9995469763214337  0.7411138471346518  0.9161612079525046  1.0000
  C   C7        1.0  0.9770221282905448  0.24284336496916695  0.9192546920239988  1.0000
  C   C8        1.0  0.022977872021161146  0.7571566336691586  0.08074530808536197  1.0000
  C   C9        1.0  0.9122142220255988  0.1713734752398944  0.9090931121600071  1.0000
  C   C10       1.0  0.08778577777172243  0.8286265248989089  0.09090688782359818  1.0000
  C   C11       1.0  0.811157618342021  0.06571284107053608  0.7312525459638061  1.0000
  C   C12       1.0  0.1888423814553  0.9342871590682673  0.268747454019799  1.0000
  C   C13       1.0  0.7127740938676563  0.9768308586440849  0.6765245027013063  1.0000
  C   C14       1.0  0.28722590592966485  0.02316914149471856  0.32347549728229874  1.0000
  C   C15       1.0  0.6555375786555807  0.928760138700229  0.595388510023516  1.0000
  C   C16       1.0  0.3444624211417405  0.07123986143857426  0.40461148996008905  1.0000
  C   C17       1.0  0.5981755892427787  0.8766604396763574  0.7051755209789586  1.0000
  C   C18       1.0  0.40182441055454243  0.12333956046244597  0.2948244790046465  1.0000
  C   C19       1.0  0.5977260478876132  0.8723297255564313  0.890718484984689  1.0000
  C   C20       1.0  0.4022739524141993  0.12767027457160832  0.10928151491461678  1.0000
  C   C21       1.0  0.6541846074050538  0.9190416010589625  0.9746522680135689  1.0000
  C   C22       1.0  0.3458153923922674  0.08095839907984098  0.025347731970036192  1.0000
  C   C23       1.0  0.7113919520392449  0.973381412011221  0.8641871799457824  1.0000
  C   C24       1.0  0.2886080477580763  0.02661858812758243  0.1358128200378229  1.0000
  C   C25       1.0  0.7986800898948765  0.059525262235927925  0.06306571868186121  1.0000
  C   C26       1.0  0.2013199099024447  0.9404747379028754  0.9369342813017439  1.0000
  C   C27       1.0  0.8693649122298776  0.12020804440200845  0.0635447432465121  1.0000
  C   C28       1.0  0.1306350875674436  0.8797919557367948  0.9364552567370931  1.0000
  C   C29       1.0  0.3627546653834931  0.6024943888172029  0.31649242628422314  1.0000
  C   C30       1.0  0.637245334413119  0.3975056113180045  0.6835075750135594  1.0000
  C   C31       1.0  0.3041049010958168  0.5498606073624461  0.23543978083500566  1.0000
  C   C32       1.0  0.6958950987015043  0.4501393927763573  0.7645602191485994  1.0000
  C   C33       1.0  0.24692112820249754  0.49331620201627957  0.3363672107382154  1.0000
  C   C34       1.0  0.7530788720993151  0.50668379811176  0.6636327891610904  1.0000
  C   C35       1.0  0.2438395939114089  0.4859005955609245  0.5264831987401553  1.0000
  C   C36       1.0  0.7561604058859123  0.5140994045778788  0.4735168012434498  1.0000
  C   C37       1.0  0.3021992590312149  0.5396737347851246  0.6073731868927436  1.0000
  C   C38       1.0  0.6978007407661062  0.4603262653536788  0.39262681309086167  1.0000
  C   C39       1.0  0.3594007493384377  0.5967661434231414  0.5065046537945245  1.0000
  C   C40       1.0  0.6405992504588834  0.4032338567156621  0.49349534618908075  1.0000
  C   C41       1.0  0.42247383444738795  0.6531672767094978  0.21400925266020493  1.0000
  C   C42       1.0  0.5775261658544245  0.3468327234185419  0.7859907472391009  1.0000
  C   C43       1.0  0.18509974093143283  0.42546472727257073  0.6302062055107092  1.0000
  C   C44       1.0  0.8149002588757818  0.5745352713765187  0.36979379468295104  1.0000
  C   C45       1.0  0.12700671208481618  0.36757732765710266  0.5553142243044252  1.0000
  C   C46       1.0  0.8729932882169962  0.632422672470937  0.44468577559488065  1.0000
  C   C47       1.0  0.1808711328435148  0.41679766762203  0.8176495159263923  1.0000
  C   C48       1.0  0.8191288669538065  0.5832023325167732  0.18235048405721277  1.0000
  C   C49       1.0  0.48127604643211086  0.7026077868429665  0.2912857587034396  1.0000
  C   C50       1.0  0.5187239538697017  0.29739221328507315  0.7087142411958662  1.0000
  C   C51       1.0  0.42756918216488926  0.6519953148198486  0.02764335017846383  1.0000
  C   C52       1.0  0.5724308176324319  0.34800468531895484  0.9723566498051414  1.0000
  N   N1        1.0  0.7754166083329747  0.033527687662794695  0.5980443994546414  1.0000
  N   N2        1.0  0.2245833914643465  0.9664723124760087  0.40195560052896373  1.0000
  N   N3        1.0  0.7759431550395252  0.03215216488590461  0.8966627358429822  1.0000
  N   N4        1.0  0.22405684475779597  0.9678478352528989  0.103337264140623  1.0000
  N   N5        1.0  0.7554715318773374  0.030244732171726654  0.19683863745490182  1.0000
  N   N6        1.0  0.24452846791998373  0.9697552679670767  0.8031613625287034  1.0000
  N   N7        1.0  0.5299093850736456  0.74416606968028  0.35404896599496705  1.0000
  N   N8        1.0  0.47009061522816686  0.25583393044775954  0.645951033904339  1.0000
  N   N9        1.0  0.43166053751547995  0.6490183131104934  0.8741286697595391  1.0000
  N   N10       1.0  0.5683394627863325  0.3509816870175461  0.12587133013976684  1.0000
  N   N11       1.0  0.07846966009254894  0.3171904655666784  0.49774803159684994  1.0000
  N   N12       1.0  0.921530339704772  0.6828095345721249  0.5022519683867551  1.0000
  N   N13       1.0  0.17725010978071662  0.4098405098335539  0.9725319592212723  1.0000
  N   N14       1.0  0.8227498905210958  0.5901594902944857  0.027468040678033493  1.0000
  S   S1        1.0  0.892218641338399  0.1457909208156545  0.6946052702967681  1.0000
  S   S2        1.0  0.10778135845892219  0.8542090793231488  0.305394729686837  1.0000
