data_image0
_chemical_formula_structural       H56C80N8O32F24S8
_chemical_formula_sum              "H56 C80 N8 O32 F24 S8"
_cell_length_a       6.912844868498014
_cell_length_b       29.878872930131536
_cell_length_c       11.005526725237308
_cell_angle_alpha    90.0
_cell_angle_beta     96.451682813699
_cell_angle_gamma    90.0

_space_group_name_H-M_alt    "P 1"
_space_group_IT_number       1

loop_
  _space_group_symop_operation_xyz
  'x, y, z'

loop_
  _atom_site_type_symbol
  _atom_site_label
  _atom_site_symmetry_multiplicity
  _atom_site_fract_x
  _atom_site_fract_y
  _atom_site_fract_z
  _atom_site_occupancy
  H   H1        1.0  0.9867627459335881  0.1986717472202144  0.7976093791117166  1.0000
  H   H2        1.0  0.5132372534087819  0.6986717470506709  0.7023906206607372  1.0000
  H   H3        1.0  0.013237254115391948  0.8013282527753832  0.2023906210725274  1.0000
  H   H4        1.0  0.48676274663378594  0.30132825294492677  0.2976093786144287  1.0000
  H   H5        1.0  0.40713270356972797  0.8977806486451665  0.18072661548133032  1.0000
  H   H6        1.0  0.09286729573007428  0.3977806488147101  0.3192733850159576  1.0000
  H   H7        1.0  0.5928672964792521  0.10221935135043109  0.8192733847029137  1.0000
  H   H8        1.0  0.9071327043189058  0.6022193511808877  0.6807266151682864  1.0000
  H   H9        1.0  0.15987385481050964  0.19085658161654412  0.22071161900006778  1.0000
  H   H10       1.0  0.3401261444828803  0.6908565814470006  0.2792883805881419  1.0000
  H   H11       1.0  0.8401261452384705  0.8091434183790536  0.7792883811841762  1.0000
  H   H12       1.0  0.6598738555596875  0.309143418548597  0.7207116186870239  1.0000
  H   H13       1.0  0.9855938084011163  0.23304631925985256  0.1680631159666478  1.0000
  H   H14       1.0  0.5144061904476741  0.733046319090309  0.3319368840348315  1.0000
  H   H15       1.0  0.014406191647863905  0.7669536807357451  0.8319368842175963  1.0000
  H   H16       1.0  0.485593809601306  0.2669536809052886  0.6680631161494126  1.0000
  H   H17       1.0  0.9044761961701422  0.1782604117114719  0.20834844685526088  1.0000
  H   H18       1.0  0.5955238041344361  0.6782604118766131  0.29165155324496483  1.0000
  H   H19       1.0  0.09552380387883799  0.8217395882841257  0.7916515533289832  1.0000
  H   H20       1.0  0.404476195914544  0.3217395881189847  0.7083484469392792  1.0000
  H   H21       1.0  0.25833913908984085  0.8985994790628069  0.7620060006906262  1.0000
  H   H22       1.0  0.24166086069712872  0.39859947889766567  0.7379939986685582  1.0000
  H   H23       1.0  0.741660860952727  0.10140052093279082  0.23799399858453982  1.0000
  H   H24       1.0  0.7583391393454391  0.601400521097932  0.2620060006066077  1.0000
  H   H25       1.0  0.4653789324631742  0.8645599159782724  0.8174927124614008  1.0000
  H   H26       1.0  0.03462106733020777  0.3645599158131313  0.6825072878068618  1.0000
  H   H27       1.0  0.534621067585806  0.13544008401732524  0.18250728772284344  1.0000
  H   H28       1.0  0.9653789327187724  0.6354400841824664  0.3174927123773823  1.0000
  H   H29       1.0  0.4987679201822792  0.9213652360440227  0.7691188431047616  1.0000
  H   H30       1.0  0.0012320796111027013  0.4213652362135661  0.7308811571635008  1.0000
  H   H31       1.0  0.5012320798667008  0.07863476395157508  0.23088115707948237  1.0000
  H   H32       1.0  0.9987679204378774  0.5786347637820316  0.2691188430207434  1.0000
  H   H33       1.0  0.2512683725490702  0.01807706238662404  0.6976015899290491  1.0000
  H   H34       1.0  0.24873162724431175  0.5180770625517652  0.8023984103392133  1.0000
  H   H35       1.0  0.74873162749991  0.9819229376089736  0.3023984102551949  1.0000
  H   H36       1.0  0.7512683728046684  0.48192293744383247  0.19760158984503082  1.0000
  H   H37       1.0  0.3143969235944435  0.9710937229074479  0.5272105010856999  1.0000
  H   H38       1.0  0.18560307619893843  0.47109372274230676  0.9727894991825624  1.0000
  H   H39       1.0  0.6856030764545366  0.028906277088149784  0.4727894990985442  1.0000
  H   H40       1.0  0.8143969238500417  0.5289062772532909  0.027210501001681542  1.0000
  H   H41       1.0  0.10464940222193544  0.07627883505945773  0.2741718288681956  1.0000
  H   H42       1.0  0.3953505985272424  0.5762788352245989  0.2258281708187606  1.0000
  H   H43       1.0  0.8953505978270446  0.92372116493614  0.7258281713160484  1.0000
  H   H44       1.0  0.6046494015153253  0.42372116477099875  0.7741718284564052  1.0000
  H   H45       1.0  0.04104674139546588  0.1233756152255162  0.4456766250525421  1.0000
  H   H46       1.0  0.458953259353712  0.6233756153906573  0.054323374634413994  1.0000
  H   H47       1.0  0.9589532586535142  0.8766243847700814  0.5543233751317018  1.0000
  H   H48       1.0  0.5410467406888557  0.3766243846049403  0.9456766246407519  1.0000
  H   H49       1.0  0.05750168622360954  0.1811105801297766  0.577562999472591  1.0000
  H   H50       1.0  0.44249831356977243  0.6811105799602332  0.9224370007956714  1.0000
  H   H51       1.0  0.9424983138253706  0.8188894198658212  0.422437000711653  1.0000
  H   H52       1.0  0.5575016864792077  0.3188894200353646  0.07756299938857268  1.0000
  H   H53       1.0  0.35906138767453366  0.9193007599125352  0.40350012038987343  1.0000
  H   H54       1.0  0.1409386130746442  0.4193007600820787  0.09649987929708274  1.0000
  H   H55       1.0  0.6409386123680341  0.08069924008306244  0.5964998788852925  1.0000
  H   H56       1.0  0.859061386974336  0.5806992399135189  0.9035001208871614  1.0000
  C   C1        1.0  0.10973517048317091  0.10317329195142533  0.6885513447674159  1.0000
  C   C2        1.0  0.390264829310211  0.6031732917818818  0.8114486555008463  1.0000
  C   C3        1.0  0.8902648295658092  0.8968267080441724  0.31144865541682815  1.0000
  C   C4        1.0  0.609735170738769  0.39682670821371585  0.18855134468339757  1.0000
  C   C5        1.0  0.06927826804535646  0.13478640072593495  0.8883599677828682  1.0000
  C   C6        1.0  0.43072173174802547  0.6347864005563915  0.6116400324853942  1.0000
  C   C7        1.0  0.9307217320036237  0.8652135992696627  0.11164003240137589  1.0000
  C   C8        1.0  0.5692782683009546  0.36521359943920617  0.3883599676988498  1.0000
  C   C9        1.0  0.029816429778624597  0.16383132896099004  0.7914088273803924  1.0000
  C   C10       1.0  0.47018357147054535  0.6638313287914466  0.7085911729866163  1.0000
  C   C11       1.0  0.9701835702703555  0.8361686710346077  0.20859117280385162  1.0000
  C   C12       1.0  0.5298164285784348  0.3361686712041511  0.2914088271976277  1.0000
  C   C13       1.0  0.0606870475528499  0.14234913043559957  0.019253413088342775  1.0000
  C   C14       1.0  0.4393129531963279  0.6423491302660561  0.4807465865986134  1.0000
  C   C15       1.0  0.9393129524897178  0.857650869559998  0.9807465861868231  1.0000
  C   C16       1.0  0.5606870468526521  0.3576508697295416  0.5192534135856307  1.0000
  C   C17       1.0  0.017958921875274935  0.19730692264683247  0.16930665737127523  1.0000
  C   C18       1.0  0.4820410788739029  0.6973069228119736  0.3306933423156809  1.0000
  C   C19       1.0  0.9820410781672928  0.8026930773487652  0.8306933419038907  1.0000
  C   C20       1.0  0.5179589211750771  0.30269307718362404  0.6693066578685631  1.0000
  C   C21       1.0  0.2551678973472235  0.9918899892677288  0.2839436877572594  1.0000
  C   C22       1.0  0.2448321019525788  0.4918899891025876  0.2160563127400285  1.0000
  C   C23       1.0  0.7448321027017566  0.008110010727868952  0.7160563124269846  1.0000
  C   C24       1.0  0.7551678980964013  0.5081100108930101  0.7839436874442155  1.0000
  C   C25       1.0  0.3056682098610214  0.9599693217033849  0.08591420689546117  1.0000
  C   C26       1.0  0.1943317908945688  0.4599693218729284  0.4140857937005732  1.0000
  C   C27       1.0  0.6943317901879587  0.04003067829221277  0.9140857932887829  1.0000
  C   C28       1.0  0.8056682091544113  0.5400306781226692  0.5859142064836709  1.0000
  C   C29       1.0  0.35344449269838946  0.9319481114670484  0.18434995794577683  1.0000
  C   C30       1.0  0.1465555065950004  0.4319481116365919  0.3156500416424329  1.0000
  C   C31       1.0  0.6465555073441781  0.06805188852854929  0.815650041329389  1.0000
  C   C32       1.0  0.8534444934539797  0.5680518883590058  0.6843499585418111  1.0000
  C   C33       1.0  0.3178448769394976  0.9517377043135614  0.9557272149777564  1.0000
  C   C34       1.0  0.18215512285388435  0.4517377041484202  0.5442727852905058  1.0000
  C   C35       1.0  0.6821551231094825  0.04826229568203635  0.044272785206487565  1.0000
  C   C36       1.0  0.8178448771950957  0.5482622958471774  0.45572721489373813  1.0000
  C   C37       1.0  0.40427610576496753  0.8982700205178671  0.8125566585796918  1.0000
  C   C38       1.0  0.09572389402200207  0.39827002068741063  0.6874433407794924  1.0000
  C   C39       1.0  0.5957238942776002  0.10172997947773055  0.18744334069547408  1.0000
  C   C40       1.0  0.9042761045711901  0.6017299793081871  0.31255665930600524  1.0000
  C   C41       1.0  0.143756073114661  0.07487549798921252  0.5854612231015943  1.0000
  C   C42       1.0  0.35624392667872096  0.5748754981543537  0.914538777166668  1.0000
  C   C43       1.0  0.8562439269343192  0.9251245020063851  0.41453877708264963  1.0000
  C   C44       1.0  0.6437560733702592  0.425124501841244  0.08546122301757603  1.0000
  C   C45       1.0  0.21980671214924763  0.03139146688006852  0.6051490578217273  1.0000
  C   C46       1.0  0.2801932890999223  0.5313914670452097  0.8948509425452815  1.0000
  C   C47       1.0  0.7801932878997326  0.9686085331155292  0.3948509423625166  1.0000
  C   C48       1.0  0.7198067109490579  0.468608532950388  0.10514905763896265  1.0000
  C   C49       1.0  0.25541115945825726  0.004379771630141737  0.5078482678185651  1.0000
  C   C50       1.0  0.24458884179091261  0.5043797717952829  0.9921517325484437  1.0000
  C   C51       1.0  0.7445888405907228  0.9956202283654559  0.49215173236567894  1.0000
  C   C52       1.0  0.7554111582580675  0.49562022820031476  0.007848267635800352  1.0000
  C   C53       1.0  0.21551970740033632  0.019869745133568744  0.3865479215121341  1.0000
  C   C54       1.0  0.2844802933552539  0.5198697449640253  0.11345207908390027  1.0000
  C   C55       1.0  0.7844802926486438  0.980130254862029  0.6134520786721099  1.0000
  C   C56       1.0  0.7155197066937261  0.4801302550315724  0.8865479211003439  1.0000
  C   C57       1.0  0.13766126040746568  0.06318245016853416  0.3667533076943975  1.0000
  C   C58       1.0  0.3623387403481246  0.5631824503336753  0.13324669290163677  1.0000
  C   C59       1.0  0.8623387396415144  0.9368175498270636  0.6332466924898464  1.0000
  C   C60       1.0  0.6376612597008556  0.4368175496619224  0.8667533072826074  1.0000
  C   C61       1.0  0.10175388429448523  0.09017352650149442  0.46422048695169726  1.0000
  C   C62       1.0  0.3982461164546926  0.5901735266666356  0.03577951273525891  1.0000
  C   C63       1.0  0.8982461157544949  0.9098264734941033  0.5357795132325468  1.0000
  C   C64       1.0  0.6017538835942875  0.4098264733289621  0.9642204874489851  1.0000
  C   C65       1.0  0.028560994512472366  0.24600775562010602  0.5436785388735638  1.0000
  C   C66       1.0  0.4714390067366976  0.7460077557852471  0.956321461493445  1.0000
  C   C67       1.0  0.9714390055365077  0.7539922443754917  0.4563214613106803  1.0000
  C   C68       1.0  0.5285609933122826  0.2539922442103505  0.04367853869079901  1.0000
  C   C69       1.0  0.024440565172678726  0.27892399587788974  0.43373294979351995  1.0000
  C   C70       1.0  0.47555943558291147  0.7789239960430309  0.06626705080251434  1.0000
  C   C71       1.0  0.9755594348763014  0.7210760041177079  0.5662670503907241  1.0000
  C   C72       1.0  0.5244405644660686  0.22107600395256677  0.9337329493817297  1.0000
  C   C73       1.0  0.43405032337387933  0.8568267363988317  0.44257125434609584  1.0000
  C   C74       1.0  0.06594967591951058  0.3568267365683751  0.05742874524211396  1.0000
  C   C75       1.0  0.5659496766751009  0.14317326359676605  0.5574287458381483  1.0000
  C   C76       1.0  0.9340503241230572  0.6431732634272226  0.9425712540330521  1.0000
  C   C77       1.0  0.45624392832574473  0.823488382160059  0.5515918589434818  1.0000
  C   C78       1.0  0.043756071467637214  0.3234883823296025  0.9484081413247805  1.0000
  C   C79       1.0  0.5437560717232354  0.17651161783553868  0.4484081412407622  1.0000
  C   C80       1.0  0.9562439285813429  0.6765116176659951  0.051591858859463546  1.0000
  N   N1        1.0  0.052581261431884574  0.14591893376283407  0.6803079366252937  1.0000
  N   N2        1.0  0.44741873836149737  0.6459189335932907  0.8196920636429688  1.0000
  N   N3        1.0  0.9474187386170955  0.8540810662327636  0.3196920635589504  1.0000
  N   N4        1.0  0.5525812616874828  0.3540810664023071  0.1803079365412753  1.0000
  N   N5        1.0  0.32507250924455044  0.9500925492196947  0.2942895718578078  1.0000
  N   N6        1.0  0.17492749004883945  0.45009254938923815  0.20571042773040196  1.0000
  N   N7        1.0  0.6749274908044297  0.049907450775902994  0.7057104283264363  1.0000
  N   N8        1.0  0.8250725099937283  0.5499074506063595  0.7942895715447638  1.0000
  O   O1        1.0  0.02340648029308469  0.18534372240042926  0.042078024402626646  1.0000
  O   O2        1.0  0.47659351900671754  0.6853437222308858  0.45792197609466123  1.0000
  O   O3        1.0  0.9765935183001075  0.8146562775951683  0.9579219756828709  1.0000
  O   O4        1.0  0.5234064810422625  0.3146562777647119  0.5420780240895828  1.0000
  O   O5        1.0  0.08528069217640097  0.11262258412051777  0.09699312142568275  1.0000
  O   O6        1.0  0.4147193085727769  0.6126225839509742  0.40300687826127346  1.0000
  O   O7        1.0  0.9147193078661668  0.8873774158750799  0.9030068778494832  1.0000
  O   O8        1.0  0.5852806914762032  0.3873774160446234  0.5969931219229706  1.0000
  O   O9        1.0  0.39378006554199524  0.9111588179266756  0.938283952008162  1.0000
  O   O10       1.0  0.10621993425138676  0.4111588180962192  0.5617160482601005  1.0000
  O   O11       1.0  0.606219934506985  0.08884118206892197  0.06171604817608207  1.0000
  O   O12       1.0  0.8937800657975933  0.5888411818993785  0.4382839519241437  1.0000
  O   O13       1.0  0.2660296597163237  0.9786948098203002  0.8740298906043837  1.0000
  O   O14       1.0  0.23397034007064593  0.47869480998984365  0.6259701087548004  1.0000
  O   O15       1.0  0.7339703403262441  0.021305190175297473  0.12597010867078212  1.0000
  O   O16       1.0  0.7660296599719219  0.521305190005754  0.37402989052036545  1.0000
  O   O17       1.0  0.06328883617660333  0.20514528122707928  0.5073804371882301  1.0000
  O   O18       1.0  0.43671116361677864  0.7051452810575358  0.9926195630800323  1.0000
  O   O19       1.0  0.9367111638723767  0.7948547187685184  0.49261956299601395  1.0000
  O   O20       1.0  0.5632888364322015  0.2948547189380619  0.007380437104211777  1.0000
  O   O21       1.0  0.9985984911766955  0.25890257132821326  0.645200242458222  1.0000
  O   O22       1.0  0.5014015081656744  0.7589025711586698  0.8547997573142316  1.0000
  O   O23       1.0  0.00140150887228446  0.7410974286673845  0.35479975772602196  1.0000
  O   O24       1.0  0.4985984918833058  0.24109742883692792  0.14520024287001232  1.0000
  O   O25       1.0  0.3774444913375191  0.8962141072930396  0.47863693765055165  1.0000
  O   O26       1.0  0.12255550941807108  0.3962141071278984  0.021363062945482677  1.0000
  O   O27       1.0  0.6225555087114609  0.10378589270255811  0.5213630625336924  1.0000
  O   O28       1.0  0.877444490630909  0.6037858928676992  0.9786369372387613  1.0000
  O   O29       1.0  0.4702251544758971  0.8455893801309049  0.3407747968798798  1.0000
  O   O30       1.0  0.02977484627328073  0.3455893799657637  0.15922520280707633  1.0000
  O   O31       1.0  0.529774845573083  0.1544106198646928  0.6592252033043642  1.0000
  O   O32       1.0  0.970225153769287  0.6544106200298339  0.8407747964680895  1.0000
  F   F1        1.0  0.020772522450751063  0.3220588063178204  0.47156923020482644  1.0000
  F   F2        1.0  0.4792274768490512  0.8220588061482769  0.02843077029246152  1.0000
  F   F3        1.0  0.9792274775982291  0.6779411936777773  0.5284307699794177  1.0000
  F   F4        1.0  0.520772523199929  0.17794119384732074  0.9715692298917824  1.0000
  F   F5        1.0  0.18165306826754485  0.27378258306893866  0.37145327724721033  1.0000
  F   F6        1.0  0.318346931025845  0.7737825828993952  0.1285467223409994  1.0000
  F   F7        1.0  0.8183469317814352  0.726217416926659  0.6285467229370337  1.0000
  F   F8        1.0  0.6816530690231352  0.22621741709620252  0.8714532778432446  1.0000
  F   F9        1.0  0.8617798758935337  0.27162514091405093  0.3540915351037017  1.0000
  F   F10       1.0  0.6382201244110447  0.7716251407445074  0.14590846499652402  1.0000
  F   F11       1.0  0.13822012414903412  0.7283748590815468  0.6459084641714642  1.0000
  F   F12       1.0  0.36177987563793546  0.22837485925109025  0.85409153518772  1.0000
  F   F13       1.0  0.6168575886304054  0.8344999153182661  0.6295693523558453  1.0000
  F   F14       1.0  0.883142410718377  0.33449991515312494  0.8704306483256864  1.0000
  F   F15       1.0  0.3831424114185748  0.1655000846773316  0.37043064782839863  1.0000
  F   F16       1.0  0.11685758933060308  0.6655000848424728  0.1295693518585575  1.0000
  F   F17       1.0  0.4763905140549528  0.7810850464330837  0.5138016770836284  1.0000
  F   F18       1.0  0.02360948573842915  0.28108504660262723  0.9861983231846341  1.0000
  F   F19       1.0  0.5236094859940272  0.21891495356251395  0.48619832310061567  1.0000
  F   F20       1.0  0.976390514310551  0.7189149533929705  0.013801676999610097  1.0000
  F   F21       1.0  0.29985248674660964  0.8249112765275746  0.6164484647276895  1.0000
  F   F22       1.0  0.2001475145025603  0.3249112763624335  0.8835515356393192  1.0000
  F   F23       1.0  0.7001475133023706  0.17508872346802304  0.38355153545655446  1.0000
  F   F24       1.0  0.7998524855464199  0.6750887236331643  0.1164484645449248  1.0000
  S   S1        1.0  0.13909662093191175  0.08357304895131488  0.8374052713844756  1.0000
  S   S2        1.0  0.36090337885505785  0.5835730487817714  0.6625947279747083  1.0000
  S   S3        1.0  0.8609033791170685  0.9164269510442828  0.16259472879976827  1.0000
  S   S4        1.0  0.6390966211875099  0.4164269512138263  0.3374052713004575  1.0000
  S   S5        1.0  0.21987234921335777  0.010167063888599719  0.13387155824288322  1.0000
  S   S6        1.0  0.28012765154223246  0.5101670637190562  0.36612844235315106  1.0000
  S   S7        1.0  0.7801276508356223  0.9898329361069979  0.8661284419413607  1.0000
  S   S8        1.0  0.7198723485067476  0.48983293627654145  0.633871557831093  1.0000
