data_image0
_chemical_formula_structural       H20C38F8I4
_chemical_formula_sum              "H20 C38 F8 I4"
_cell_length_a       8.473020823256517
_cell_length_b       6.889483925663869
_cell_length_c       14.545858120327289
_cell_angle_alpha    90.0
_cell_angle_beta     100.08837684524643
_cell_angle_gamma    90.0

_space_group_name_H-M_alt    "P 1"
_space_group_IT_number       1

loop_
  _space_group_symop_operation_xyz
  'x, y, z'

loop_
  _atom_site_type_symbol
  _atom_site_label
  _atom_site_symmetry_multiplicity
  _atom_site_fract_x
  _atom_site_fract_y
  _atom_site_fract_z
  _atom_site_occupancy
  H   H1        1.0  0.8362503063085015  0.1319725947270263  0.6588282554611459  1.0000
  H   H2        1.0  0.1637496940980347  0.1319725947270263  0.34117174509902065  1.0000
  H   H3        1.0  0.3362503061793014  0.6319725943159745  0.6588282553683379  1.0000
  H   H4        1.0  0.6637496942272347  0.6319725943159745  0.3411717451918286  1.0000
  H   H5        1.0  0.7487660267534768  0.4030685142693638  0.7503626913250422  1.0000
  H   H6        1.0  0.2512339734517825  0.4030685142693638  0.24963730853686614  1.0000
  H   H7        1.0  0.24876602662427688  0.9030685138583121  0.7503626912322343  1.0000
  H   H8        1.0  0.7512339735809824  0.9030685138583121  0.24963730862967407  1.0000
  H   H9        1.0  0.7994695009631114  0.7447233356460152  0.7106634134294838  1.0000
  H   H10       1.0  0.20053049924214794  0.7447233356460152  0.28933658643242455  1.0000
  H   H11       1.0  0.29946950103518816  0.24472333605706695  0.7106634140349339  1.0000
  H   H12       1.0  0.7005304993713479  0.24472333605706695  0.2893365865252325  1.0000
  H   H13       1.0  0.9350371567368009  0.8219513640064603  0.5762254292324084  1.0000
  H   H14       1.0  0.0649628434684585  0.8219513640064603  0.42377457062949986  1.0000
  H   H15       1.0  0.4350371566076009  0.32195136296602456  0.5762254291396005  1.0000
  H   H16       1.0  0.5649628435976585  0.32195136296602456  0.42377457072230784  1.0000
  H   H17       1.0  0.09425066048133672  0.09299218880727199  0.5380848630059281  1.0000
  H   H18       1.0  0.9057493397239227  0.09299218880727199  0.4619151368559802  1.0000
  H   H19       1.0  0.5942506606105368  0.5929921898477077  0.538084863098736  1.0000
  H   H20       1.0  0.40574933959472265  0.5929921898477077  0.46191513676317225  1.0000
  C   C1        1.0  0.3546499939631446  0.5112194872652406  0.9345271126303155  1.0000
  C   C2        1.0  0.6453500062421147  0.5112194872652406  0.06547288723159263  1.0000
  C   C3        1.0  0.8546499940923448  0.011219487676292347  0.9345271127231236  1.0000
  C   C4        1.0  0.1453500061129147  0.011219487676292347  0.0654728871387847  1.0000
  C   C5        1.0  0.5029661228533867  0.5108272140515775  0.9053989377479409  1.0000
  C   C6        1.0  0.49703387617014044  0.5108272140515775  0.0946010621088206  1.0000
  C   C7        1.0  0.0029661227241865734  0.01082721446262931  0.905398937655133  1.0000
  C   C8        1.0  0.9970338762993406  0.01082721446262931  0.09460106220162853  1.0000
  C   C9        1.0  0.6457730744141306  0.511519141059672  0.9696443370372934  1.0000
  C   C10       1.0  0.3542269246093964  0.511519141059672  0.030355662819468172  1.0000
  C   C11       1.0  0.14577307428493058  0.011519141470723847  0.9696443369444853  1.0000
  C   C12       1.0  0.8542269247385964  0.011519141470723847  0.030355662912276104  1.0000
  C   C13       1.0  0.8586048158894747  0.28130024409821863  0.6400992738557112  1.0000
  C   C14       1.0  0.14139518431578482  0.28130024409821863  0.35990072600619716  1.0000
  C   C15       1.0  0.35860481576027453  0.7813002451386544  0.6400992737629032  1.0000
  C   C16       1.0  0.6413951844449848  0.7813002451386544  0.35990072609900503  1.0000
  C   C17       1.0  0.810142085834104  0.4345444204968545  0.6921592162429792  1.0000
  C   C18       1.0  0.1898579143711554  0.4345444204968545  0.3078407836189291  1.0000
  C   C19       1.0  0.31014208590618075  0.9345444200858026  0.6921592168484295  1.0000
  C   C20       1.0  0.6898579145003555  0.9345444200858026  0.307840783711737  1.0000
  C   C21       1.0  0.8387829247019345  0.6279419861746943  0.669431969464535  1.0000
  C   C22       1.0  0.1612170755033249  0.6279419861746943  0.33056803039737326  1.0000
  C   C23       1.0  0.3387829245727345  0.1279419865857461  0.6694319693717271  1.0000
  C   C24       1.0  0.661217075632525  0.1279419865857461  0.3305680304901812  1.0000
  C   C25       1.0  0.9141630597772848  0.6715096195763611  0.593737234901844  1.0000
  C   C26       1.0  0.08583694062925115  0.6715096195763611  0.4062627656583225  1.0000
  C   C27       1.0  0.414163059648085  0.17150961998741293  0.5937372348090361  1.0000
  C   C28       1.0  0.5858369407584512  0.17150961998741293  0.40626276575113046  1.0000
  C   C29       1.0  0.9609340556625164  0.5187890905276467  0.5411664114638757  1.0000
  C   C30       1.0  0.039065943361010595  0.5187890905276467  0.4588335883928858  1.0000
  C   C31       1.0  0.4609340555333165  0.018789090938698502  0.5411664113710678  1.0000
  C   C32       1.0  0.5390659434902105  0.018789090938698502  0.45883358848569367  1.0000
  C   C33       1.0  0.9348152411456301  0.32358899361031296  0.5653451190150002  1.0000
  C   C34       1.0  0.06518475905962928  0.32358899361031296  0.4346548808469082  1.0000
  C   C35       1.0  0.43481524101643004  0.8235889946507488  0.5653451189221922  1.0000
  C   C36       1.0  0.5651847591888294  0.8235889946507488  0.4346548809397161  1.0000
  C   C37       1.0  0.9999999999734297  0.18748523894342847  0.4999999998381462  1.0000
  C   C38       1.0  0.5000000001026297  0.6874852385323766  0.4999999999309541  1.0000
  F   F1        1.0  0.5103349128272943  0.5091760932821937  0.8131809281793438  1.0000
  F   F2        1.0  0.4896650863975096  0.5091760932821937  0.18681907237567588  1.0000
  F   F3        1.0  0.010334913879826511  0.00917609369324543  0.8131809280916827  1.0000
  F   F4        1.0  0.9896650863254328  0.00917609369324543  0.18681907177022558  1.0000
  F   F5        1.0  0.7862912394466112  0.5111387642377975  0.9373592508021714  1.0000
  F   F6        1.0  0.2137087595769159  0.5111387642377975  0.06264074905459008  1.0000
  F   F7        1.0  0.28629123931741113  0.01113876464884927  0.9373592507093634  1.0000
  F   F8        1.0  0.7137087597061159  0.01113876464884927  0.06264074914739802  1.0000
  I   I1        1.0  0.14091782057168578  0.5091843261194587  0.8376094953694138  1.0000
  I   I2        1.0  0.8590821798348504  0.5091843261194587  0.1623905051907528  1.0000
  I   I3        1.0  0.6409178193178768  0.009184326530510455  0.8376094947588166  1.0000
  I   I4        1.0  0.3590821797056504  0.009184326530510455  0.16239050509794486  1.0000
