data_image0
_chemical_formula_structural       H64C52N8O28
_chemical_formula_sum              "H64 C52 N8 O28"
_cell_length_a       10.617985853116581
_cell_length_b       6.224342401727827
_cell_length_c       21.329722344526484
_cell_angle_alpha    90.0
_cell_angle_beta     107.98125312501726
_cell_angle_gamma    90.0

_space_group_name_H-M_alt    "P 1"
_space_group_IT_number       1

loop_
  _space_group_symop_operation_xyz
  'x, y, z'

loop_
  _atom_site_type_symbol
  _atom_site_label
  _atom_site_symmetry_multiplicity
  _atom_site_fract_x
  _atom_site_fract_y
  _atom_site_fract_z
  _atom_site_occupancy
  H   H1        1.0  0.9229663257722208  0.6898011087577931  0.8672814641169959  1.0000
  H   H2        1.0  0.07703367438309312  0.18980110889658908  0.632718535903899  1.0000
  H   H3        1.0  0.07703367431408248  0.310198890964615  0.1327185356596946  1.0000
  H   H4        1.0  0.9229663257096229  0.810198890825819  0.36728146434259645  1.0000
  H   H5        1.0  0.3046447833153994  0.7355411519021049  0.7615753905074406  1.0000
  H   H6        1.0  0.6953552158497754  0.23554115204090081  0.7384246093643315  1.0000
  H   H7        1.0  0.6953552157871772  0.2644588478203032  0.23842460958993206  1.0000
  H   H8        1.0  0.3046447832463888  0.7644588476815072  0.26157539026323606  1.0000
  H   H9        1.0  0.201732063899262  0.9263345792801266  0.7063330718174402  1.0000
  H   H10       1.0  0.798267936256052  0.4263345794189226  0.7936669282034547  1.0000
  H   H11       1.0  0.7982679361870413  0.0736654204422814  0.2936669279592503  1.0000
  H   H12       1.0  0.20173206383666378  0.5736654203034854  0.2063330720430407  1.0000
  H   H13       1.0  0.1812345275694313  0.29205124697114765  0.7755136558481861  1.0000
  H   H14       1.0  0.8187654725858827  0.7920512468323517  0.724486344172709  1.0000
  H   H15       1.0  0.8187654725168722  0.7079487527512603  0.22448634392850453  1.0000
  H   H16       1.0  0.18123452750683308  0.20794875289005638  0.27551365607378653  1.0000
  H   H17       1.0  0.045333199332319635  0.11727654471536886  0.7466927904143872  1.0000
  H   H18       1.0  0.9546668008229944  0.6172765445765729  0.7533072096065075  1.0000
  H   H19       1.0  0.9546668007603962  0.8827234550070392  0.25330720983210814  1.0000
  H   H20       1.0  0.04533319926330898  0.38272345514583517  0.2466927901701829  1.0000
  H   H21       1.0  0.0462219471127427  0.13096367413426957  0.9707893162727746  1.0000
  H   H22       1.0  0.9537780530425715  0.6309636739954736  0.5292106837481203  1.0000
  H   H23       1.0  0.9537780529799731  0.8690363255881384  0.029210683973720765  1.0000
  H   H24       1.0  0.046221947043732066  0.36903632572693446  0.4707893160285702  1.0000
  H   H25       1.0  0.8773122253176946  0.1794635799100509  0.9239653777815146  1.0000
  H   H26       1.0  0.12268777483761932  0.6794635797712549  0.5760346222393804  1.0000
  H   H27       1.0  0.1226877747750211  0.8205364214189526  0.07603462246498086  1.0000
  H   H28       1.0  0.8773122252486841  0.3205364215577486  0.4239653775373102  1.0000
  H   H29       1.0  0.05760413648001287  0.5160486928078309  0.965228696407143  1.0000
  H   H30       1.0  0.9423958636753011  0.01604869294662688  0.5347713036137519  1.0000
  H   H31       1.0  0.9423958636062906  0.4839513069145771  0.034771303369547445  1.0000
  H   H32       1.0  0.05760413641741465  0.9839513067757811  0.4652286966327436  1.0000
  H   H33       1.0  0.12055991676611343  0.5557468430785178  0.85027323654769  1.0000
  H   H34       1.0  0.8794400833892005  0.05574684321731386  0.649726763473205  1.0000
  H   H35       1.0  0.8794400833266024  0.4442531566438902  0.1497267636988055  1.0000
  H   H36       1.0  0.12055991669710278  0.9442531565050941  0.35027323630348556  1.0000
  H   H37       1.0  0.22193783500929692  0.4029248791492922  0.917861263450472  1.0000
  H   H38       1.0  0.7780621651460172  0.9029248790104962  0.5821387365704228  1.0000
  H   H39       1.0  0.778062165083419  0.5970751205731158  0.0821387367960233  1.0000
  H   H40       1.0  0.22193783494028632  0.09707512071191182  0.41786126320626776  1.0000
  H   H41       1.0  0.3707466899175092  0.7179572027977597  0.8803370039442158  1.0000
  H   H42       1.0  0.6292533102378048  0.21795720293655563  0.6196629960766792  1.0000
  H   H43       1.0  0.6292533101687942  0.28204279692464845  0.1196629958324747  1.0000
  H   H44       1.0  0.37074668985491105  0.7820427967858524  0.3803370041698163  1.0000
  H   H45       1.0  0.6338507080054935  0.8428423906345053  0.7736478290739938  1.0000
  H   H46       1.0  0.3661492921498206  0.3428423907733012  0.7263521709469012  1.0000
  H   H47       1.0  0.36614929208080993  0.1571576090879028  0.2263521707026968  1.0000
  H   H48       1.0  0.6338507079428953  0.6571576089491068  0.27364782929959425  1.0000
  H   H49       1.0  0.7830693946943307  0.6446639389385346  0.9172823121007966  1.0000
  H   H50       1.0  0.2169306054609834  0.14466393907733058  0.5827176879200983  1.0000
  H   H51       1.0  0.21693060539838518  0.3553360607838734  0.08271768814569885  1.0000
  H   H52       1.0  0.78306939462532  0.8553360606450775  0.4172823118565922  1.0000
  H   H53       1.0  0.5161315307314077  0.14402692720618104  0.7842415584569057  1.0000
  H   H54       1.0  0.48386846942390627  0.6440269270673851  0.7157584415639892  1.0000
  H   H55       1.0  0.48386846935489564  0.855973072516227  0.21575844131978475  1.0000
  H   H56       1.0  0.5161315306688096  0.355973072655023  0.2842415586825063  1.0000
  H   H57       1.0  0.6957207976534555  0.013306302040358353  0.02563148704808945  1.0000
  H   H58       1.0  0.30427920237024964  0.5133063019015623  0.4743685129542015  1.0000
  H   H59       1.0  0.30427920243926027  0.9866936976820496  0.9743685131984061  1.0000
  H   H60       1.0  0.6957207977160538  0.4866936978208457  0.525631486822489  1.0000
  H   H61       1.0  0.5636006367635323  0.3417993022699763  0.9845286814731218  1.0000
  H   H62       1.0  0.43639936339178176  0.8417993021311804  0.5154713185477731  1.0000
  H   H63       1.0  0.4363993633291835  0.6582006990590271  0.015471318773373691  1.0000
  H   H64       1.0  0.5636006366945217  0.15820069919782315  0.4845286812289173  1.0000
  C   C1        1.0  0.22372076977140637  0.9634991960492468  0.805123963841825  1.0000
  C   C2        1.0  0.7762792303839078  0.4634991945814474  0.6948760361790698  1.0000
  C   C3        1.0  0.7762792303148971  0.036500805279756604  0.19487603593486544  1.0000
  C   C4        1.0  0.22372076970880814  0.5365008051409607  0.3051239640674256  1.0000
  C   C5        1.0  0.13042543341508842  0.15593800073250566  0.7896825124723605  1.0000
  C   C6        1.0  0.8695745667402255  0.6559380022003051  0.7103174875485344  1.0000
  C   C7        1.0  0.869574566671215  0.8440619989899024  0.21031748730433006  1.0000
  C   C8        1.0  0.13042543335249018  0.34406199912869834  0.28968251269796097  1.0000
  C   C9        1.0  0.007429122686888065  0.08906760171903566  0.8670271513176353  1.0000
  C   C10       1.0  0.9925708774684261  0.5890676015802397  0.6329728487032596  1.0000
  C   C11       1.0  0.9925708774058277  0.9109323980033723  0.13297284892886022  1.0000
  C   C12       1.0  0.007429122617877417  0.41093239814216836  0.3670271510734308  1.0000
  C   C13       1.0  0.9803956363803767  0.1990912179985479  0.9248029361471892  1.0000
  C   C14       1.0  0.019604363774937204  0.699091217859752  0.5751970638737057  1.0000
  C   C15       1.0  0.01960436371233898  0.8009087817238603  0.07519706409930625  1.0000
  C   C16       1.0  0.9803956363113663  0.3009087818626561  0.4248029359029848  1.0000
  C   C17       1.0  0.017166351156848718  0.433369210095385  0.9177727350455503  1.0000
  C   C18       1.0  0.9828336480083262  0.933369209956589  0.5822272648262219  1.0000
  C   C19       1.0  0.9828336479393155  0.5666307896270231  0.0822272645820174  1.0000
  C   C20       1.0  0.017166351094250493  0.06663078976581903  0.4177727352711507  1.0000
  C   C21       1.0  0.12230169062175458  0.4164608215127156  0.8820665076744127  1.0000
  C   C22       1.0  0.8776983095335595  0.9164608213739195  0.6179334923464822  1.0000
  C   C23       1.0  0.8776983094709612  0.5835391798162879  0.11793349257208265  1.0000
  C   C24       1.0  0.12230169055274391  0.08353917834848847  0.3820665074302084  1.0000
  C   C25       1.0  0.44770507872981824  0.4532848014943397  0.856024806197537  1.0000
  C   C26       1.0  0.5522949214254959  0.9532848013555437  0.643975193823358  1.0000
  C   C27       1.0  0.5522949213628976  0.5467151982280684  0.1439751940489585  1.0000
  C   C28       1.0  0.4477050786608076  0.0467151983668643  0.3560248059533325  1.0000
  C   C29       1.0  0.5323879079843646  0.2672560846810464  0.8817495558260225  1.0000
  C   C30       1.0  0.4676120921709495  0.7672560845422505  0.6182504441948723  1.0000
  C   C31       1.0  0.46761209210193877  0.7327439150413616  0.11825044395066787  1.0000
  C   C32       1.0  0.5323879079217664  0.2327439151801576  0.3817495560516232  1.0000
  C   C33       1.0  0.5571152772326865  0.1189409598987502  0.8371808141900468  1.0000
  C   C34       1.0  0.4428847229226276  0.6189409597599542  0.6628191858308481  1.0000
  C   C35       1.0  0.442884722853617  0.8810590398236579  0.16281918558664366  1.0000
  C   C36       1.0  0.5571152771700882  0.3810590399624538  0.33718081441564735  1.0000
  C   C37       1.0  0.6320752662718289  0.9359635788003591  0.8599104384566025  1.0000
  C   C38       1.0  0.36792473289334593  0.4359635789391551  0.6400895614151697  1.0000
  C   C39       1.0  0.367924733820887  0.0640364209220489  0.14008956178989307  1.0000
  C   C40       1.0  0.6320752662028183  0.5640364207832529  0.359910438212398  1.0000
  C   C41       1.0  0.6832787767136901  0.8978720351966228  0.9286695225591056  1.0000
  C   C42       1.0  0.316721223441624  0.3978720337288234  0.5713304774617891  1.0000
  C   C43       1.0  0.3167212233790258  0.1021279661323806  0.07133047768738972  1.0000
  C   C44       1.0  0.6832787766446794  0.6021279659935845  0.4286695223149013  1.0000
  C   C45       1.0  0.6578622727604617  0.045215814271701196  0.972865768706234  1.0000
  C   C46       1.0  0.3421377264047131  0.5452158141329052  0.527134231165538  1.0000
  C   C47       1.0  0.34213772634211487  0.9547841854507068  0.027134231391138568  1.0000
  C   C48       1.0  0.6578622736815903  0.45478418558950284  0.47286576861115237  1.0000
  C   C49       1.0  0.5836267367850195  0.22921402421627024  0.9497919158634873  1.0000
  C   C50       1.0  0.41637326238015543  0.7292140240774743  0.5502080840082847  1.0000
  C   C51       1.0  0.4163732623111447  0.7707859755061378  0.05020808376408024  1.0000
  C   C52       1.0  0.5836267377125605  0.2707859756449338  0.4497919162382108  1.0000
  N   N1        1.0  0.24543335002651617  0.869849688618841  0.753331165734015  1.0000
  N   N2        1.0  0.7545666501287979  0.3698496887576371  0.74666883428688  1.0000
  N   N3        1.0  0.7545666500661996  0.1301503127101624  0.2466688345124805  1.0000
  N   N4        1.0  0.24543334995750554  0.6301503125713664  0.25333116548981055  1.0000
  N   N5        1.0  0.08461822336534014  0.21879148223304135  0.8438569196952206  1.0000
  N   N6        1.0  0.9153817757998347  0.7187914820942454  0.6561430801765514  1.0000
  N   N7        1.0  0.9153817767273756  0.7812085174893667  0.1561430805512748  1.0000
  N   N8        1.0  0.0846182232963295  0.2812085176281627  0.3438569194510162  1.0000
  O   O1        1.0  0.2753324912520229  0.9026067907897309  0.8636718856478597  1.0000
  O   O2        1.0  0.7246675089032911  0.40260679092852686  0.6363281143730353  1.0000
  O   O3        1.0  0.7246675088406929  0.0973932089326772  0.13632811459863578  1.0000
  O   O4        1.0  0.27533249118301234  0.5973932087938812  0.36367188540365525  1.0000
  O   O5        1.0  0.9677537724065949  0.9098835353961051  0.8423724712772623  1.0000
  O   O6        1.0  0.03224622675857999  0.4098835355349012  0.6576275285945097  1.0000
  O   O7        1.0  0.03224622768612104  0.09011646593289828  0.15762752896923307  1.0000
  O   O8        1.0  0.9677537723375841  0.5901164657941024  0.34237247103305796  1.0000
  O   O9        1.0  0.8993562871811503  0.5401298198291195  0.8780834452775321  1.0000
  O   O10       1.0  0.1006437129741636  0.04012981996791542  0.6219165547433627  1.0000
  O   O11       1.0  0.10064371291156538  0.4598701798932886  0.12191655496896324  1.0000
  O   O12       1.0  0.8993562871121398  0.9598701797544926  0.37808344503332775  1.0000
  O   O13       1.0  0.435944460451227  0.5922787889973156  0.9005662830386459  1.0000
  O   O14       1.0  0.5640555387139479  0.0922787891361115  0.5994337168331262  1.0000
  O   O15       1.0  0.5640555396414889  0.40772121233168795  0.09943371720784958  1.0000
  O   O16       1.0  0.43594446038221635  0.9077212121928919  0.4005662827944415  1.0000
  O   O17       1.0  0.38653131122491113  0.4785404638364954  0.7955699051933636  1.0000
  O   O18       1.0  0.613468688930403  0.9785404636976993  0.7044300948275314  1.0000
  O   O19       1.0  0.6134686888613924  0.5214595358859128  0.204430094583327  1.0000
  O   O20       1.0  0.3865313111623129  0.021459536024708674  0.295569905418964  1.0000
  O   O21       1.0  0.6582597454301776  0.7842950459545532  0.8196053378176255  1.0000
  O   O22       1.0  0.34174025472513636  0.2842950444867537  0.6803946622032695  1.0000
  O   O23       1.0  0.34174025465612573  0.2157049553744503  0.18039466195906512  1.0000
  O   O24       1.0  0.6582597453675795  0.7157049552356542  0.3196053380432259  1.0000
  O   O25       1.0  0.7562290178207729  0.7203017251678576  0.9523490171872101  1.0000
  O   O26       1.0  0.24377098233454106  0.22030172530665354  0.547650982833685  1.0000
  O   O27       1.0  0.24377098227194285  0.2796982745545505  0.047650983059285494  1.0000
  O   O28       1.0  0.7562290177517624  0.7796982744157545  0.4523490169430055  1.0000
