data_image0
_chemical_formula_structural       H44C68O8
_chemical_formula_sum              "H44 C68 O8"
_cell_length_a       11.619161592924694
_cell_length_b       12.497180907493076
_cell_length_c       8.632817858863184
_cell_angle_alpha    107.63579753589195
_cell_angle_beta     92.85906391699831
_cell_angle_gamma    101.5726433558229

_space_group_name_H-M_alt    "P 1"
_space_group_IT_number       1

loop_
  _space_group_symop_operation_xyz
  'x, y, z'

loop_
  _atom_site_type_symbol
  _atom_site_label
  _atom_site_symmetry_multiplicity
  _atom_site_fract_x
  _atom_site_fract_y
  _atom_site_fract_z
  _atom_site_occupancy
  H   H1        1.0  0.10161535327099858  0.9603887215950512  0.4205170763836576  1.0000
  H   H2        1.0  0.8027195539807556  0.06708196797883464  0.8141177357952382  1.0000
  H   H3        1.0  0.6391842017008945  0.5692442052443661  0.2658411006531007  1.0000
  H   H4        1.0  0.9722499637375772  0.9684876144690483  0.19121616821118426  1.0000
  H   H5        1.0  0.587079756619986  0.11595502706111281  0.41942678520560595  1.0000
  H   H6        1.0  0.3879705091031611  0.29665544281504963  0.3570917752823456  1.0000
  H   H7        1.0  0.9477876766983536  0.009585082246579276  0.9305995274474045  1.0000
  H   H8        1.0  0.9802294290228001  0.1375422883851713  0.6946916497050855  1.0000
  H   H9        1.0  0.9550262201239265  0.488366384722243  0.9304188793925605  1.0000
  H   H10       1.0  0.32453399165990265  0.12982080110069535  0.9571926123716233  1.0000
  H   H11       1.0  0.23344088135589344  0.9456121237642161  0.6442750078662421  1.0000
  H   H12       1.0  0.4621194588634195  0.5050104489690745  0.39781891093087796  1.0000
  H   H13       1.0  0.12449706582484621  0.09207644265176138  0.8153545456781607  1.0000
  H   H14       1.0  0.05869031101588232  0.34856547655031594  0.7530486242686101  1.0000
  H   H15       1.0  0.43598243095162387  0.9823915617889565  0.7861833429108454  1.0000
  H   H16       1.0  0.6108980905896999  0.0636481049486472  0.670175470900188  1.0000
  H   H17       1.0  0.48414159932467793  0.8306634208355687  0.11927350827001551  1.0000
  H   H18       1.0  0.6354646193071148  0.29846285991732285  0.6139852388237547  1.0000
  H   H19       1.0  0.6065238673996436  0.648508960134687  0.8457784256341666  1.0000
  H   H20       1.0  0.7837581205935867  0.7198231078501187  0.7264705109747753  1.0000
  H   H21       1.0  0.0005728703554547164  0.6688923195872353  0.1250427997083604  1.0000
  H   H22       1.0  0.34968134677410606  0.8421104475263063  0.8954646341592863  1.0000
  H   H23       1.0  0.9527333832906426  0.21926924504833364  0.28102998202099433  1.0000
  H   H24       1.0  0.6157243243162247  0.8230236203564236  0.3460441605063826  1.0000
  H   H25       1.0  0.2669597959812857  0.6600429728329579  0.5855271414045393  1.0000
  H   H26       1.0  0.4684556790382463  0.6989608844309786  0.7245599890206327  1.0000
  H   H27       1.0  0.6435063951143445  0.781682880089747  0.6061892118787504  1.0000
  H   H28       1.0  0.1277494375826767  0.2836575638188988  0.1458874523189781  1.0000
  H   H29       1.0  0.20304467105104868  0.4922197207954411  0.18875654421362564  1.0000
  H   H30       1.0  0.5298830300443372  0.4375192712756511  0.7886942823518677  1.0000
  H   H31       1.0  0.14639772813861712  0.8018992315890864  0.7545912401321383  1.0000
  H   H32       1.0  0.9734768752993673  0.7173897599338226  0.8717152988956773  1.0000
  H   H33       1.0  0.7267943943847509  0.06136811126237375  0.2327412520046361  1.0000
  H   H34       1.0  0.865822350848798  0.7282479141916536  0.306269853678227  1.0000
  H   H35       1.0  0.8192383851849443  0.07588677597443562  0.5006402828271299  1.0000
  H   H36       1.0  0.7723594759619448  0.7134488853541037  0.037999493479678355  1.0000
  H   H37       1.0  0.6688712096155328  0.9483641851406157  0.9646321465502659  1.0000
  H   H38       1.0  0.9185376635230225  0.8389392041371803  0.5748982824856147  1.0000
  H   H39       1.0  0.3791338533205461  0.3441540145392894  0.00551459901404392  1.0000
  H   H40       1.0  0.23366107644998804  0.24419093045770243  0.5005851272430989  1.0000
  H   H41       1.0  0.21050394704092054  0.4446834495488608  0.5414025819671154  1.0000
  H   H42       1.0  0.27066002328309174  0.5941926954768068  0.8153806050958122  1.0000
  H   H43       1.0  0.35981663615062887  0.5456832078612236  0.04537298473219726  1.0000
  H   H44       1.0  0.32083942056404935  0.19524081324050918  0.7310934477815594  1.0000
  C   C1        1.0  0.6743307961319873  0.19256190307629908  0.013314291897328013  1.0000
  C   C2        1.0  0.6155628688138871  0.2768099549248098  0.11951355253013546  1.0000
  C   C3        1.0  0.26464635310314094  0.07274225548011772  0.15954938831054755  1.0000
  C   C4        1.0  0.16295837591381995  0.02525534659696862  0.22723502586093616  1.0000
  C   C5        1.0  0.7799290709970569  0.23735529990606952  0.9419219511443846  1.0000
  C   C6        1.0  0.5164027235880821  0.242590352348334  0.1973191517857728  1.0000
  C   C7        1.0  0.17892875746904074  0.9973031475153389  0.3712042705917623  1.0000
  C   C8        1.0  0.8235051324312357  0.3565151572730831  0.9734176435980539  1.0000
  C   C9        1.0  0.4626576175082707  0.3252875311344559  0.29704770555588406  1.0000
  C   C10       1.0  0.6584297725836386  0.3969269619933065  0.1491775478768955  1.0000
  C   C11       1.0  0.29205880462157446  0.014075549866152205  0.4515311609381662  1.0000
  C   C12       1.0  0.8372895411243414  0.15932603399336537  0.84060338164457  1.0000
  C   C13       1.0  0.3767625836454751  0.09090683135336369  0.24352426777030936  1.0000
  C   C14       1.0  0.6033638513147178  0.4781574622450498  0.24710742904467764  1.0000
  C   C15       1.0  0.2476730477161715  0.09692362000935405  0.010169627274896838  1.0000
  C   C16       1.0  0.5096742917215962  0.08115887550463807  0.46974384096533495  1.0000
  C   C17       1.0  0.7655029185849803  0.44101845228436115  0.07965091834389408  1.0000
  C   C18       1.0  0.048811757108871305  0.0051152281960182  0.14126801721159082  1.0000
  C   C19       1.0  0.5051372870503529  0.4419320618829277  0.32036489475081065  1.0000
  C   C20       1.0  0.9233521705905475  0.3959052075433607  0.9045358139494813  1.0000
  C   C21       1.0  0.4224486321952946  0.00382358702922857  0.6743236808659595  1.0000
  C   C22       1.0  0.5227606966914932  0.05189649308880155  0.6094608479467233  1.0000
  C   C23       1.0  0.39477878266168187  0.06365910223262461  0.3874344593675933  1.0000
  C   C24       1.0  0.13595096515111033  0.07469240228438652  0.9306364407170095  1.0000
  C   C25       1.0  0.3105343113480291  0.9842585219019406  0.5964531046935616  1.0000
  C   C26       1.0  0.9804504827796524  0.31775467343790686  0.8055686784274381  1.0000
  C   C27       1.0  0.9370612829825651  0.19949575156363264  0.7735098991598022  1.0000
  C   C28       1.0  0.035456271628222895  0.028550884835487993  0.9968675194572623  1.0000
  C   C29       1.0  0.9138061125470277  0.5949886509216193  0.5287148498262192  1.0000
  C   C30       1.0  0.8084038441167217  0.5499269311674645  0.6001433028194006  1.0000
  C   C31       1.0  0.8247120362504043  0.3467685567420081  0.4645211690081867  1.0000
  C   C32       1.0  0.9319699105967361  0.39121651065152324  0.3956816188312647  1.0000
  C   C33       1.0  0.19226426676600128  0.7246655002953177  0.15575132270319345  1.0000
  C   C34       1.0  0.21179668038737395  0.6980168507446991  0.29968634913100645  1.0000
  C   C35       1.0  0.9739005176418638  0.5112205212452638  0.42414090290669065  1.0000
  C   C36       1.0  0.7656795671143287  0.4307930426830097  0.5697158427057436  1.0000
  C   C37       1.0  0.7500615399221734  0.6275421472037344  0.7004452668646463  1.0000
  C   C38       1.0  0.29373695039585346  0.7748666530148292  0.09007330010476874  1.0000
  C   C39       1.0  0.07345498519869018  0.5457912521167574  0.3471081427637613  1.0000
  C   C40       1.0  0.08530793564748948  0.34661002485122483  0.2244287362485557  1.0000
  C   C41       1.0  0.2734177362078624  0.8034646766949938  0.9445670517670368  1.0000
  C   C42       1.0  0.32460196778573563  0.7172406701588366  0.38219100013025353  1.0000
  C   C43       1.0  0.07691323133475901  0.7048878043102624  0.07385698084503882  1.0000
  C   C44       1.0  0.3430963534091186  0.6933233373616906  0.5314500025155026  1.0000
  C   C45       1.0  0.12772837231637646  0.4633165077954185  0.24786838619520163  1.0000
  C   C46       1.0  0.4252933666701537  0.7652053298759822  0.31304008555362156  1.0000
  C   C47       1.0  0.9877130006527657  0.3102559365864129  0.29848101585749304  1.0000
  C   C48       1.0  0.665995388716567  0.3908874022736566  0.6385564838074609  1.0000
  C   C49       1.0  0.4075871321538484  0.7929429264143306  0.16919654497921593  1.0000
  C   C50       1.0  0.607950258936543  0.46862701200166806  0.7362616858554993  1.0000
  C   C51       1.0  0.06212832680693274  0.732177838941503  0.9328370407545038  1.0000
  C   C52       1.0  0.5401523844627298  0.7859522121440186  0.39745032775810585  1.0000
  C   C53       1.0  0.16109892246817017  0.7815631269957447  0.8669596739048258  1.0000
  C   C54       1.0  0.555100983708399  0.7624946204237757  0.5416496562269738  1.0000
  C   C55       1.0  0.6503381147252629  0.5869477621711191  0.7673026314545743  1.0000
  C   C56       1.0  0.45550088950470585  0.7158768499148747  0.6091708625556064  1.0000
  C   C57       1.0  0.8349857247941851  0.8015047342905552  0.291409617637207  1.0000
  C   C58       1.0  0.8089607267664534  0.995616804892035  0.40072126586960455  1.0000
  C   C59       1.0  0.78112429118939  0.7929288870340623  0.138763514837556  1.0000
  C   C60       1.0  0.7553247718412713  0.9870263919474498  0.2479798049163537  1.0000
  C   C61       1.0  0.7402606187183504  0.8856089647277937  0.1155409567209086  1.0000
  C   C62       1.0  0.848986594782029  0.9026220121585443  0.42415387319684567  1.0000
  C   C63       1.0  0.33053423500276125  0.4791123977455583  0.9267725592423246  1.0000
  C   C64       1.0  0.3432740984446758  0.3666068153968968  0.9035909332387254  1.0000
  C   C65       1.0  0.2485454630872368  0.42304912404282813  0.6428697207600207  1.0000
  C   C66       1.0  0.2824226078578026  0.5070227841806042  0.7964615310772057  1.0000
  C   C67       1.0  0.2622370893369554  0.3107716095992545  0.6194012657870545  1.0000
  C   C68       1.0  0.30979178330979124  0.282690862379985  0.7499232527350936  1.0000
  O   O1        1.0  0.47633190500849043  0.12810548285057535  0.17311035485266885  1.0000
  O   O2        1.0  0.6376696973308075  0.0866148136490284  0.9815590853441079  1.0000
  O   O3        1.0  0.8055521154484238  0.5459797420315405  0.11224183414296794  1.0000
  O   O4        1.0  0.11328467512545613  0.6602777000332888  0.371535885881389  1.0000
  O   O5        1.0  0.9493361563734978  0.7010023022718169  0.5594987645440348  1.0000
  O   O6        1.0  0.7851893495522754  0.24178552981935286  0.43203644762169857  1.0000
  O   O7        1.0  0.6873722320196001  0.8742527936433601  0.9631102391775082  1.0000
  O   O8        1.0  0.9013288643401306  0.9135527924637633  0.5765640595154382  1.0000
