data_image0
_chemical_formula_structural       H100C140N4O8Cl4
_chemical_formula_sum              "H100 C140 N4 O8 Cl4"
_cell_length_a       7.891024681358589
_cell_length_b       25.246080380005793
_cell_length_c       13.442624181358761
_cell_angle_alpha    90.0
_cell_angle_beta     105.79574589708743
_cell_angle_gamma    90.0

_space_group_name_H-M_alt    "P 1"
_space_group_IT_number       1

loop_
  _space_group_symop_operation_xyz
  'x, y, z'

loop_
  _atom_site_type_symbol
  _atom_site_label
  _atom_site_symmetry_multiplicity
  _atom_site_fract_x
  _atom_site_fract_y
  _atom_site_fract_z
  _atom_site_occupancy
  H   H1        1.0  0.09083745170644408  0.575567806617142  0.5602686050982414  1.0000
  H   H2        1.0  0.40916254920062095  0.07556780661725684  0.9397313951162832  1.0000
  H   H3        1.0  0.9091625482104914  0.4244321933826284  0.43973139518025  1.0000
  H   H4        1.0  0.5908374519849695  0.9244321933825136  0.060268605165231706  1.0000
  H   H5        1.0  0.017482835573136006  0.5197200192070761  0.4024659695767363  1.0000
  H   H6        1.0  0.48251716501965924  0.019720019207190916  0.09753403056402117  1.0000
  H   H7        1.0  0.9825171643437997  0.48027998079269435  0.5975340307017551  1.0000
  H   H8        1.0  0.5174828345437376  0.9802799807925796  0.9024659689413803  1.0000
  H   H9        1.0  0.08249741357187965  0.5523227538736372  0.24226529328524435  1.0000
  H   H10       1.0  0.41750258666737694  0.052322753873751904  0.2577347060824232  1.0000
  H   H11       1.0  0.9175025872601721  0.44767724612613335  0.7577347062231807  1.0000
  H   H12       1.0  0.58249741289602  0.9476772461260186  0.7422652934229782  1.0000
  H   H13       1.0  0.22358674285937943  0.6406943591453577  0.2409281834304266  1.0000
  H   H14       1.0  0.27641325773341574  0.1406943591454724  0.25907181671033086  1.0000
  H   H15       1.0  0.7764132567040176  0.35930564085441286  0.759071816074975  1.0000
  H   H16       1.0  0.7235867421835197  0.8593056408542981  0.7409281835681606  1.0000
  H   H17       1.0  0.23786349008779895  0.6628623631117567  0.5611267600067062  1.0000
  H   H18       1.0  0.26213650955061124  0.16286236311187155  0.9388732402047949  1.0000
  H   H19       1.0  0.7621365098291365  0.3371376368880137  0.4388732402717851  1.0000
  H   H20       1.0  0.7378634903663243  0.837137636887899  0.06112676007369657  1.0000
  H   H21       1.0  0.5484670847778369  0.032285510373543894  0.5960782753789803  1.0000
  H   H22       1.0  0.9515329157318939  0.5322855103734292  0.9039217250402686  1.0000
  H   H23       1.0  0.45153291513909866  0.9677144896262265  0.40392172489951117  1.0000
  H   H24       1.0  0.04846708545369657  0.4677144896263413  0.09607827524124635  1.0000
  H   H25       1.0  0.7468260974890077  0.9537224871179972  0.6165051192855058  1.0000
  H   H26       1.0  0.7531739013985294  0.45372248711811203  0.8834948803576296  1.0000
  H   H27       1.0  0.253173902074389  0.04627751288177321  0.38349488021989564  1.0000
  H   H28       1.0  0.2468260985184062  0.5462775128816585  0.11650511992086177  1.0000
  H   H29       1.0  0.06027522696193013  0.9653933332677762  0.6258102863605471  1.0000
  H   H30       1.0  0.4397247726764801  0.46539333326789095  0.8741897138509541  1.0000
  H   H31       1.0  0.9397247729550053  0.03460666673199428  0.3741897139179443  1.0000
  H   H32       1.0  0.5602752272404554  0.5346066667318795  0.12581028642753742  1.0000
  H   H33       1.0  0.2663308880197077  0.08846593080519564  0.5789190857909885  1.0000
  H   H34       1.0  0.2336691116187025  0.5884659308050809  0.9210809144205127  1.0000
  H   H35       1.0  0.7336691118972278  0.9115340691945748  0.4210809144875029  1.0000
  H   H36       1.0  0.766330888298233  0.4115340691946896  0.07891908585797881  1.0000
  H   H37       1.0  0.2883339305320318  0.01984008140910011  0.601542155883304  1.0000
  H   H38       1.0  0.21166606910637825  0.5198400814089853  0.898457844328197  1.0000
  H   H39       1.0  0.7116660693849036  0.9801599185906704  0.3984578443951874  1.0000
  H   H40       1.0  0.7883339308105572  0.4801599185907851  0.10154215595029434  1.0000
  H   H41       1.0  0.48337291050582853  0.06995338854258987  0.7520173225505141  1.0000
  H   H42       1.0  0.01662709040123655  0.5699533885424751  0.7479826776640105  1.0000
  H   H43       1.0  0.516627089411107  0.9300466114571806  0.24798267772797722  1.0000
  H   H44       1.0  0.983372909515699  0.4300466114572954  0.25201732261448095  1.0000
  H   H45       1.0  0.3170563348019215  0.034300992350710456  0.7901113813283068  1.0000
  H   H46       1.0  0.18294366610514357  0.5343009923505957  0.7098886188862178  1.0000
  H   H47       1.0  0.6829436651150139  0.9656990076490599  0.2098886189501847  1.0000
  H   H48       1.0  0.8170563350804468  0.46569900764917477  0.290111381395297  1.0000
  H   H49       1.0  0.2948879912860648  0.10347803899368717  0.7698197251942239  1.0000
  H   H50       1.0  0.2051120079988066  0.6034780389935723  0.7301802742441871  1.0000
  H   H51       1.0  0.705112008277332  0.8965219610060833  0.23018027431117752  1.0000
  H   H52       1.0  0.7948879915645902  0.396521961006198  0.2698197252612143  1.0000
  H   H53       1.0  0.5280897041937187  0.1286524613370202  0.6179289881540715  1.0000
  H   H54       1.0  0.9719102959624734  0.6286524613369054  0.8820710114920874  1.0000
  H   H55       1.0  0.4719102953696781  0.8713475386627503  0.3820710113513299  1.0000
  H   H56       1.0  0.02808970395446217  0.371347538662865  0.11792898878640401  1.0000
  H   H57       1.0  0.7011429152834596  0.17122568592562676  0.6119018908812032  1.0000
  H   H58       1.0  0.7988570848727325  0.671225685925512  0.8880981087649559  1.0000
  H   H59       1.0  0.2988570846334759  0.8287743140741437  0.38809810939728834  1.0000
  H   H60       1.0  0.20114291595931932  0.3287743140742585  0.11190189074346914  1.0000
  H   H61       1.0  0.6405686088413275  0.1532034898796877  0.42056438542498914  1.0000
  H   H62       1.0  0.8594313913541333  0.6532034898795729  0.07943561492049257  1.0000
  H   H63       1.0  0.35943139234426297  0.8467965101200828  0.5794356148565258  1.0000
  H   H64       1.0  0.14056860856280218  0.3467965101201975  0.9205643853579989  1.0000
  H   H65       1.0  0.45246943142607143  0.17984015980539145  0.45174378028424667  1.0000
  H   H66       1.0  0.04753056754453018  0.6798401598052767  0.048256219080397365  1.0000
  H   H67       1.0  0.5475305681373254  0.820159840194379  0.5482562192211549  1.0000
  H   H68       1.0  0.9524694320188667  0.3201598401944938  0.9517437804250042  1.0000
  H   H69       1.0  0.46531642627199693  0.11104004731840106  0.426683132049053  1.0000
  H   H70       1.0  0.03468357432079832  0.6110400473182863  0.07331686809170453  1.0000
  H   H71       1.0  0.5346835736449386  0.8889599526813694  0.5733168682294385  1.0000
  H   H72       1.0  0.9653164252425986  0.3889599526814842  0.926683131413697  1.0000
  H   H73       1.0  0.13861890837510304  0.2592972414515658  0.8145314849815725  1.0000
  H   H74       1.0  0.3613810912633072  0.759297241451451  0.6854685152299288  1.0000
  H   H75       1.0  0.8613810911882939  0.7407027585482047  0.1854685145238291  1.0000
  H   H76       1.0  0.6386189086536284  0.24070275854831946  0.31453148504856265  1.0000
  H   H77       1.0  0.26161864744990293  0.34799418316666164  0.7883904786832691  1.0000
  H   H78       1.0  0.23838135183496859  0.8479941831665468  0.7116095207551419  1.0000
  H   H79       1.0  0.738381352113494  0.6520058168331089  0.21160952082213233  1.0000
  H   H80       1.0  0.7616186477284282  0.15200581683322356  0.28839047875025947  1.0000
  H   H81       1.0  0.21300263024983507  0.2877732036278311  0.2968762930561427  1.0000
  H   H82       1.0  0.2869973703429602  0.7877732036277164  0.20312370708461477  1.0000
  H   H83       1.0  0.7869973696671004  0.7122267963719394  0.7031237072223486  1.0000
  H   H84       1.0  0.7130026308426304  0.21222679637205408  0.7968762931969002  1.0000
  H   H85       1.0  0.08686931631814777  0.1995207055582877  0.3171683289587429  1.0000
  H   H86       1.0  0.41313068427464744  0.6995207055581729  0.18283167118201457  1.0000
  H   H87       1.0  0.9131306835987878  0.8004792944414827  0.6828316713197486  1.0000
  H   H88       1.0  0.5868693156422881  0.30047929444159754  0.817168329096477  1.0000
  H   H89       1.0  0.3563186116405184  0.3916154532182366  0.33453838603121944  1.0000
  H   H90       1.0  0.1436813889522768  0.8916154532181219  0.16546161410953805  1.0000
  H   H91       1.0  0.6436813891915334  0.6083845467815339  0.6654616134772057  1.0000
  H   H92       1.0  0.8563186109646587  0.10838454678164865  0.8345383861689534  1.0000
  H   H93       1.0  0.4799709002868865  0.4784728883920803  0.3158962205884995  1.0000
  H   H94       1.0  0.020029099037253816  0.9784728883919654  0.1841037795492345  1.0000
  H   H95       1.0  0.5200290996300491  0.5215271116076902  0.6841037796899919  1.0000
  H   H96       1.0  0.9799709008796816  0.021527111607804968  0.8158962207292569  1.0000
  H   H97       1.0  0.6064915684693036  0.5652359829806073  0.2939476070374326  1.0000
  H   H98       1.0  0.8935084313726187  0.0652359829807221  0.2060523925349592  1.0000
  H   H99       1.0  0.3935084314476321  0.4347640170191631  0.706052393241059  1.0000
  H   H100      1.0  0.1064915681907782  0.9347640170190483  0.7939476069704423  1.0000
  C   C1        1.0  0.12070557889274332  0.5895786144208016  0.49048530873124757  1.0000
  C   C2        1.0  0.3792944217000519  0.08957861442091633  0.009514691409509902  1.0000
  C   C3        1.0  0.8792944222928472  0.4104213855789689  0.5095146915502674  1.0000
  C   C4        1.0  0.6207055782168837  0.9104213855788541  0.9904853088689816  1.0000
  C   C5        1.0  0.07843372802161114  0.5583779009578185  0.4015477865555703  1.0000
  C   C6        1.0  0.42156627130252916  0.05837790095793325  0.09845221358216368  1.0000
  C   C7        1.0  0.9215662718953245  0.441622099041952  0.5984522137229212  1.0000
  C   C8        1.0  0.5784337286144065  0.9416220990418372  0.9015477866963277  1.0000
  C   C9        1.0  0.1149341597879998  0.5767145858226352  0.31173927003711194  1.0000
  C   C10       1.0  0.3850658404512568  0.07671458582275002  0.18826072933055557  1.0000
  C   C11       1.0  0.8850658397753971  0.4232854141771352  0.6882607294682895  1.0000
  C   C12       1.0  0.614934160380795  0.9232854141770205  0.8117392701778694  1.0000
  C   C13       1.0  0.19424013071203322  0.6260711255802621  0.3105644627774483  1.0000
  C   C14       1.0  0.30575986988076204  0.12607112558037692  0.18943553736330918  1.0000
  C   C15       1.0  0.8057598688513636  0.37392887441950834  0.6894355367279533  1.0000
  C   C16       1.0  0.6942401300361735  0.8739288744193936  0.8105644629151822  1.0000
  C   C17       1.0  0.236183501339311  0.6566041718352557  0.4005122546317114  1.0000
  C   C18       1.0  0.26381649925348416  0.15660417183537037  0.09948774550904597  1.0000
  C   C19       1.0  0.7638164985776246  0.34339582816451486  0.59948774564678  1.0000
  C   C20       1.0  0.7361835006634514  0.8433958281644002  0.9005122547694454  1.0000
  C   C21       1.0  0.20079313677975372  0.6389061350202474  0.49114150854541433  1.0000
  C   C22       1.0  0.29920686254438666  0.13890613502036211  0.008858491592319707  1.0000
  C   C23       1.0  0.7992068631371818  0.3610938649795231  0.5088584917330772  1.0000
  C   C24       1.0  0.7007931373725489  0.8610938649794084  0.9911415086861717  1.0000
  C   C25       1.0  0.9317063479268919  0.0941284315913857  0.6008748026491207  1.0000
  C   C26       1.0  0.5682936525828388  0.5941284315912709  0.8991251977701282  1.0000
  C   C27       1.0  0.0682936519900436  0.9058715684083848  0.39912519762937076  1.0000
  C   C28       1.0  0.43170634860275164  0.40587156840849953  0.10087480251138674  1.0000
  C   C29       1.0  0.7521834823907239  0.0886463699043125  0.5946605418168004  1.0000
  C   C30       1.0  0.7478165164968132  0.5886463699041977  0.9053394578263351  1.0000
  C   C31       1.0  0.24781651752621164  0.9113536300954579  0.40533945846169095  1.0000
  C   C32       1.0  0.2521834830665836  0.41135363009557274  0.09466054167906653  1.0000
  C   C33       1.0  0.6877794358533891  0.037463758166161036  0.6017178939632412  1.0000
  C   C34       1.0  0.8122205643028031  0.5374637581660462  0.8982821056829178  1.0000
  C   C35       1.0  0.3122205637100079  0.9625362418336094  0.39828210554216037  1.0000
  C   C36       1.0  0.1877794352605938  0.46253624183372416  0.10171789382248368  1.0000
  C   C37       1.0  0.7982185931987331  0.9935320807211279  0.613177942847734  1.0000
  C   C38       1.0  0.7017814073109977  0.4935320807212426  0.886822057571515  1.0000
  C   C39       1.0  0.20178140671820247  0.006467919278642593  0.3868220574307575  1.0000
  C   C40       1.0  0.29821859260593786  0.5064679192785279  0.11317794270697647  1.0000
  C   C41       1.0  0.9760921999987087  9.552968079393583e-05  0.6199443808018166  1.0000
  C   C42       1.0  0.5239077992423671  0.5000955296806792  0.8800556196144088  1.0000
  C   C43       1.0  0.02390779991822687  0.9999044703189764  0.3800556194766749  1.0000
  C   C44       1.0  0.4760922006745683  0.49990447031909135  0.11994438066408263  1.0000
  C   C45       1.0  0.046168590182740714  0.05059319271642543  0.6152268286856618  1.0000
  C   C46       1.0  0.45383141072432437  0.5505931927163107  0.8847731715288628  1.0000
  C   C47       1.0  0.9538314097341948  0.949406807283345  0.3847731715928296  1.0000
  C   C48       1.0  0.5461685901077274  0.4494068072834598  0.1152268279795622  1.0000
  C   C49       1.0  0.24054894567838855  0.056576855436585284  0.6284376637003837  1.0000
  C   C50       1.0  0.2594510539600216  0.5565768554364705  0.8715623365111174  1.0000
  C   C51       1.0  0.759451054238547  0.9434231445631851  0.37156233657810767  1.0000
  C   C52       1.0  0.7405489459569139  0.4434231445632999  0.12843766376737406  1.0000
  C   C53       1.0  0.3406134608497506  0.06690171442762445  0.7414586286357621  1.0000
  C   C54       1.0  0.1593865400573145  0.5669017144275097  0.7585413715787626  1.0000
  C   C55       1.0  0.65938654033584  0.9330982855721461  0.25854137164575297  1.0000
  C   C56       1.0  0.8406134598596211  0.4330982855722608  0.24145862869972884  1.0000
  C   C57       1.0  0.6296060962881176  0.13554749761116044  0.5773291889170677  1.0000
  C   C58       1.0  0.8703939042216132  0.6355474976110458  0.9226708115021811  1.0000
  C   C59       1.0  0.37039390362881797  0.8644525023886099  0.4226708113614236  1.0000
  C   C60       1.0  0.12960609569532233  0.36445250238872484  0.07732918877631034  1.0000
  C   C61       1.0  0.541801104885374  0.14571750404920306  0.46254151902366086  1.0000
  C   C62       1.0  0.9581988949565481  0.6457175040490882  0.037458480548730896  1.0000
  C   C63       1.0  0.4581988959466777  0.8542824959505675  0.5374584804847641  1.0000
  C   C64       1.0  0.04180110460684877  0.3542824959506822  0.9625415189566706  1.0000
  C   C65       1.0  0.04109126327833668  0.1800563862420435  0.6756703760339354  1.0000
  C   C66       1.0  0.4589087376287284  0.6800563862419287  0.8243296241805892  1.0000
  C   C67       1.0  0.9589087366385988  0.8199436137577271  0.324329624244556  1.0000
  C   C68       1.0  0.541091263556862  0.31994361375784175  0.17567037610092567  1.0000
  C   C69       1.0  0.11073107134430128  0.2321743871433659  0.6603519238517425  1.0000
  C   C70       1.0  0.3892689282941089  0.7321743871432511  0.8396480763597587  1.0000
  C   C71       1.0  0.8892689285726342  0.7678256128564046  0.339648076426749  1.0000
  C   C72       1.0  0.6107310716228266  0.2678256128565193  0.1603519239187327  1.0000
  C   C73       1.0  0.15660489676263392  0.2698445951790333  0.7393916865718901  1.0000
  C   C74       1.0  0.3433951025222376  0.7698445951789187  0.760608312866521  1.0000
  C   C75       1.0  0.843395102800763  0.7301554048207372  0.26060831293351133  1.0000
  C   C76       1.0  0.6566048970411593  0.2301554048208519  0.2393916866388805  1.0000
  C   C77       1.0  0.22431017981668028  0.3200798753060987  0.7244914155009144  1.0000
  C   C78       1.0  0.2756898210903848  0.820079875305984  0.7755085847136102  1.0000
  C   C79       1.0  0.7756898213689102  0.6799201246936717  0.2755085847806006  1.0000
  C   C80       1.0  0.7243101788265506  0.17992012469378652  0.22449141556488114  1.0000
  C   C81       1.0  0.24676721026703086  0.33250859910310054  0.6280756559118934  1.0000
  C   C82       1.0  0.25323279064003434  0.8325085991029858  0.8719243443026314  1.0000
  C   C83       1.0  0.7532327896499047  0.6674914008966699  0.3719243443665981  1.0000
  C   C84       1.0  0.7467672105455562  0.16749140089678466  0.12807565597888368  1.0000
  C   C85       1.0  0.19786694940640637  0.29434613445520114  0.5482058215572816  1.0000
  C   C86       1.0  0.3021330498784651  0.7943461344550864  0.9517941778811295  1.0000
  C   C87       1.0  0.8021330501569905  0.7056538655445693  0.4517941779481199  1.0000
  C   C88       1.0  0.6978669496849318  0.20565386554468412  0.04820582162427194  1.0000
  C   C89       1.0  0.228659067180016  0.31185871634296813  0.45440600049269014  1.0000
  C   C90       1.0  0.2713409317905857  0.8118587163428533  0.04559399887195392  1.0000
  C   C91       1.0  0.771340932383381  0.6881412836568024  0.5455939990127114  1.0000
  C   C92       1.0  0.7286590677728112  0.18814128365691712  0.9544060006334476  1.0000
  C   C93       1.0  0.1887757151788999  0.27723618021683544  0.3704109720893931  1.0000
  C   C94       1.0  0.3112242854138953  0.7772361802167207  0.12958902805136435  1.0000
  C   C95       1.0  0.8112242847380358  0.722763819782935  0.6295890281890983  1.0000
  C   C96       1.0  0.688775715771695  0.2227638197830498  0.8704109722301506  1.0000
  C   C97       1.0  0.11926870141993608  0.22681838264822501  0.38236179000067466  1.0000
  C   C98       1.0  0.38073129790420424  0.7268183826481103  0.1176382101370593  1.0000
  C   C99       1.0  0.8807312984969994  0.7731816173515454  0.6176382102778167  1.0000
  C   C100      1.0  0.6192687020127312  0.27318161735166024  0.8823617901414321  1.0000
  C   C101      1.0  0.09046784913926761  0.20997146290472135  0.47578062378715436  1.0000
  C   C102      1.0  0.4095321514535276  0.7099714629046066  0.02421937635360313  1.0000
  C   C103      1.0  0.9095321507776679  0.790028537095049  0.5242193764913371  1.0000
  C   C104      1.0  0.5904678484634079  0.2900285370951639  0.9757806239248884  1.0000
  C   C105      1.0  0.1311089408567038  0.24460699471157202  0.5616329970738324  1.0000
  C   C106      1.0  0.36889105878170636  0.7446069947114573  0.9383670031376687  1.0000
  C   C107      1.0  0.8688910590602318  0.7553930052881985  0.43836700320465904  1.0000
  C   C108      1.0  0.6311089411352292  0.25539300528831316  0.06163299714082273  1.0000
  C   C109      1.0  0.02144942177452221  0.15750438840990044  0.4889650326169548  1.0000
  C   C110      1.0  0.478550578818273  0.6575043884097856  0.011034967523802707  1.0000
  C   C111      1.0  0.9785505794110683  0.84249561158987  0.5110349676645601  1.0000
  C   C112      1.0  0.5214494207451239  0.3424956115899848  0.9889650319815988  1.0000
  C   C113      1.0  0.3020997900398102  0.36539096054315434  0.47532166483278526  1.0000
  C   C114      1.0  0.197900210552985  0.8653909605430395  0.024678335307972196  1.0000
  C   C115      1.0  0.6979002111457803  0.6346090394566162  0.5246783354487297  1.0000
  C   C116      1.0  0.8020997890104118  0.13460903945673092  0.9753216641974292  1.0000
  C   C117      1.0  0.3583066021667511  0.40103898694778994  0.41402772166102525  1.0000
  C   C118      1.0  0.14169339842604411  0.9010389869476753  0.08597227847973225  1.0000
  C   C119      1.0  0.6416933977501844  0.5989610130519805  0.5859722786174661  1.0000
  C   C120      1.0  0.8583066011373528  0.09896101305209527  0.9140277210256693  1.0000
  C   C121      1.0  0.42854712784670435  0.45081608783174554  0.4563477857879309  1.0000
  C   C122      1.0  0.07145287274609087  0.9508160878316307  0.04365221435282658  1.0000
  C   C123      1.0  0.5714528720702312  0.549183912168025  0.5436522144905606  1.0000
  C   C124      1.0  0.9285471271708446  0.0491839121681397  0.9563477859256648  1.0000
  C   C125      1.0  0.48898927850191165  0.4878765342819198  0.396405842120198  1.0000
  C   C126      1.0  0.011010720822228724  0.9878765342818051  0.10359415801753598  1.0000
  C   C127      1.0  0.5110107214150239  0.5121234657178507  0.6035941581582935  1.0000
  C   C128      1.0  0.9889892790947069  0.012123465717965434  0.8964058422609555  1.0000
  C   C129      1.0  0.5597458065123069  0.5367350398967909  0.43688823197132803  1.0000
  C   C130      1.0  0.9402541933296152  0.03673503989690566  0.06311176760106373  1.0000
  C   C131      1.0  0.4402541943197448  0.4632649601029796  0.5631117675370969  1.0000
  C   C132      1.0  0.05974580623378174  0.9632649601028648  0.9368882319043379  1.0000
  C   C133      1.0  0.6181391630871653  0.5746089476720849  0.3747199417472794  1.0000
  C   C134      1.0  0.8818608371082955  0.07460894767219971  0.1252800585982024  1.0000
  C   C135      1.0  0.38186083682977023  0.42539105232768554  0.6252800585312122  1.0000
  C   C136      1.0  0.11813916280863995  0.9253910523275707  0.8747199416802891  1.0000
  C   C137      1.0  0.6859802950983371  0.6220520113861887  0.4170054217200798  1.0000
  C   C138      1.0  0.814019704743585  0.12205201138630348  0.08299457785231203  1.0000
  C   C139      1.0  0.31401970608725327  0.37794798861358175  0.5829945785614352  1.0000
  C   C140      1.0  0.18598029481981185  0.877947988613467  0.9170054216530895  1.0000
  N   N1        1.0  0.00018511136949382116  0.1461073138672766  0.5882791917286911  1.0000
  N   N2        1.0  0.49981488953757125  0.6461073138671618  0.9117208084858335  1.0000
  N   N3        1.0  0.9998148885474417  0.8538926861324939  0.41172080854980025  1.0000
  N   N4        1.0  0.5001851116480192  0.35389268613260866  0.08827919179568147  1.0000
  O   O1        1.0  0.016933974469131512  0.16479259581597852  0.7581618781522738  1.0000
  O   O2        1.0  0.4830660251692787  0.6647925958158638  0.7418381220592274  1.0000
  O   O3        1.0  0.9830660254478041  0.8352074041837919  0.24183812212621772  1.0000
  O   O4        1.0  0.5169339747476569  0.3352074041839067  0.258161878219264  1.0000
  O   O5        1.0  0.9822132887625464  0.12367669527317268  0.41981326114579176  1.0000
  O   O6        1.0  0.5177867114329144  0.6236766952730579  0.08018673919968994  1.0000
  O   O7        1.0  0.017786711154388995  0.8763233047265978  0.5801867391326996  1.0000
  O   O8        1.0  0.4822132884840212  0.37632330472671255  0.9198132610788015  1.0000
  Cl  Cl1       1.0  0.335158258848196  0.718142038173921  0.3999529083820383  1.0000
  Cl  Cl2       1.0  0.16484174047594438  0.2181420381740358  0.10004709175569569  1.0000
  Cl  Cl3       1.0  0.6648417407152009  0.28185796182584943  0.6000470911233632  1.0000
  Cl  Cl4       1.0  0.8351582594409912  0.7818579618257347  0.8999529085227957  1.0000
