data_image0
_chemical_formula_structural       H50B8C84N6O14F16
_chemical_formula_sum              "H50 B8 C84 N6 O14 F16"
_cell_length_a       7.376202576402031
_cell_length_b       12.881659571911284
_cell_length_c       21.47159042299934
_cell_angle_alpha    75.0786812619875
_cell_angle_beta     80.35216331787603
_cell_angle_gamma    74.80153464543253

_space_group_name_H-M_alt    "P 1"
_space_group_IT_number       1

loop_
  _space_group_symop_operation_xyz
  'x, y, z'

loop_
  _atom_site_type_symbol
  _atom_site_label
  _atom_site_symmetry_multiplicity
  _atom_site_fract_x
  _atom_site_fract_y
  _atom_site_fract_z
  _atom_site_occupancy
  H   H1        1.0  0.7901681340701174  0.2442588135792422  0.4022664147612808  1.0000
  H   H2        1.0  0.2098318662630153  0.7557411862628602  0.5977335856025684  1.0000
  H   H3        1.0  0.9766999293653065  0.3557127433895418  0.43506823059484756  1.0000
  H   H4        1.0  0.023300069611071814  0.6442872564553739  0.5649317697685159  1.0000
  H   H5        1.0  0.8271437275649847  0.5462919362108091  0.4476476233726404  1.0000
  H   H6        1.0  0.17285627156484898  0.45370806381844836  0.552352376505939  1.0000
  H   H7        1.0  0.5093946131192725  0.7131916837725182  0.43352505098507305  1.0000
  H   H8        1.0  0.4906053860105612  0.2868083162567392  0.5664749488935064  1.0000
  H   H9        1.0  0.18404634799544053  0.7687035881754449  0.4032777429760414  1.0000
  H   H10       1.0  0.8159536524911475  0.23129641185099933  0.5967222569030237  1.0000
  H   H11       1.0  0.03620215143065182  0.642767579854506  0.3700563498182425  1.0000
  H   H12       1.0  0.963797849055936  0.35723242017193824  0.6299436500608228  1.0000
  H   H13       1.0  0.5392678134042705  0.17959941974440122  0.22302896292727198  1.0000
  H   H14       1.0  0.46073218708231733  0.8204005802820431  0.7769710369517933  1.0000
  H   H15       1.0  0.2723108971395346  0.2833271025807644  0.0568019070158025  1.0000
  H   H16       1.0  0.7276891031935978  0.7166728972613382  0.9431980933480467  1.0000
  H   H17       1.0  0.05807385404966004  0.17013923648880092  0.04199611821580822  1.0000
  H   H18       1.0  0.9419261445630307  0.8298607641607638  0.9580038821469792  1.0000
  H   H19       1.0  0.1645756976070739  0.9670293504978411  0.06182577406164797  1.0000
  H   H20       1.0  0.83542430152276  0.03297064953141614  0.9381742258169313  1.0000
  H   H21       1.0  0.45651777379906466  0.7875781917079742  0.09766835203998715  1.0000
  H   H22       1.0  0.5434822266875232  0.21242180831847005  0.902331647839078  1.0000
  H   H23       1.0  0.7787714404225347  0.7280555755840985  0.12993028915481056  1.0000
  H   H24       1.0  0.2212285600640533  0.27194442444234557  0.8700697107242548  1.0000
  H   H25       1.0  0.9569913802813951  0.8575636308546604  0.14180583571600056  1.0000
  H   H26       1.0  0.04300861848475088  0.14243636997924625  0.8581941641620029  1.0000
  H   H27       1.0  0.9936254371907797  0.23001549099955543  0.17109221179958203  1.0000
  H   H28       1.0  0.006374563295808409  0.7699845090268888  0.8289077880794832  1.0000
  H   H29       1.0  0.20626202504039864  0.28630355940454233  0.230800279205149  1.0000
  H   H30       1.0  0.7937379754461893  0.7136964406219021  0.7691997206739161  1.0000
  H   H31       1.0  0.08899646669601725  0.45347981679814287  0.2760342155918452  1.0000
  H   H32       1.0  0.9110035324338164  0.5465201832311145  0.7239657842867342  1.0000
  H   H33       1.0  0.7900062649461765  0.6272402321725041  0.28896789116188776  1.0000
  H   H34       1.0  0.20999373554041142  0.37275976785394  0.7110321087171774  1.0000
  H   H35       1.0  0.457183496649295  0.7149623349637508  0.2663292554610101  1.0000
  H   H36       1.0  0.5428165024805387  0.2850376650655065  0.7336707444175694  1.0000
  H   H37       1.0  0.28033960510249506  0.6391524287462408  0.20969864001100252  1.0000
  H   H38       1.0  0.7196603953840928  0.3608475712802034  0.7903013598680625  1.0000
  H   H39       1.0  0.6759960220970934  0.9524557818299885  0.2748716381126006  1.0000
  H   H40       1.0  0.3240039783894946  0.047544218196455726  0.7251283617664644  1.0000
  H   H41       1.0  0.7349211853393955  0.8066753270192616  0.2764968397180231  1.0000
  H   H42       1.0  0.2650788151471921  0.1933246730071828  0.7235031601610421  1.0000
  H   H43       1.0  0.7559382940091265  0.8557978022105942  0.3448134299416815  1.0000
  H   H44       1.0  0.2440617064774615  0.14420219781585003  0.6551865699373837  1.0000
  H   H45       1.0  0.9467612565485373  0.031116749764967696  0.29504014926596633  1.0000
  H   H46       1.0  0.05323874393805057  0.9688832502614766  0.7049598506130987  1.0000
  H   H47       1.0  0.18410116256657538  0.9676326888516457  0.2659261285966656  1.0000
  H   H48       1.0  0.8158988379200124  0.0323673111747987  0.7340738712823995  1.0000
  H   H49       1.0  0.006083224027496484  0.031158027839811902  0.21177964568405114  1.0000
  H   H50       1.0  0.9939167751023369  0.9688419721894456  0.7882203541945284  1.0000
  B   B1        1.0  0.3953179991045136  0.32241664250705654  0.3747495592040474  1.0000
  B   B2        1.0  0.604681999871865  0.6775833573378591  0.625250441159316  1.0000
  B   B3        1.0  0.4579014340454719  0.18226231646294996  0.316667116072139  1.0000
  B   B4        1.0  0.5420985650843618  0.8177376835663073  0.6833328838064405  1.0000
  B   B5        1.0  0.645565445922102  0.1949955486662237  0.09989468639819923  1.0000
  B   B6        1.0  0.3544345545644861  0.8050044513602205  0.900105313480866  1.0000
  B   B7        1.0  0.6148096884024495  0.3585310026455101  0.1408052526456215  1.0000
  B   B8        1.0  0.38519031057392883  0.6414689971994056  0.859194747717742  1.0000
  C   C1        1.0  0.3417668290207667  0.21234586627032917  0.4236916298133282  1.0000
  C   C2        1.0  0.6582331714658209  0.7876541337561151  0.5763083700657369  1.0000
  C   C3        1.0  0.3797954805277257  0.12938916620670637  0.3877350869595034  1.0000
  C   C4        1.0  0.6202045198054068  0.8706108336353962  0.6122649134043457  1.0000
  C   C5        1.0  0.3363260394537858  0.028266059593080588  0.4163686966008695  1.0000
  C   C6        1.0  0.6636739610328023  0.9717339404333637  0.5836313032781957  1.0000
  C   C7        1.0  0.2538923535515007  0.007296265851513909  0.48038927785478225  1.0000
  C   C8        1.0  0.7461076455783329  0.9927037341777436  0.5196107220237972  1.0000
  C   C9        1.0  0.21550369954016038  0.0885093606550743  0.5159556798784746  1.0000
  C   C10       1.0  0.7844963009464273  0.91149063937137  0.4840443200005906  1.0000
  C   C11       1.0  0.26124810747860117  0.1900595695544135  0.48714741519093274  1.0000
  C   C12       1.0  0.7387518916512323  0.8099404304748441  0.5128525846876467  1.0000
  C   C13       1.0  0.7280041992259286  0.3277603445912371  0.40856785634561565  1.0000
  C   C14       1.0  0.27199580110720384  0.6722396552508656  0.5914321440182335  1.0000
  C   C15       1.0  0.8295607093634997  0.39108722639231036  0.4271718527122393  1.0000
  C   C16       1.0  0.17043929112308806  0.6089127736341339  0.5728281471668258  1.0000
  C   C17       1.0  0.7460972946648673  0.49814160902083987  0.4334812529448724  1.0000
  C   C18       1.0  0.2539027058217206  0.5018583910056044  0.5665187469341928  1.0000
  C   C19       1.0  0.44798678963186267  0.6542407666996151  0.4208525029343373  1.0000
  C   C20       1.0  0.5520132108547253  0.3457592333268293  0.5791474969447279  1.0000
  C   C21       1.0  0.26505531850930136  0.6845154859612413  0.4038207193330602  1.0000
  C   C22       1.0  0.7349446819772865  0.315484514065203  0.596179280546005  1.0000
  C   C23       1.0  0.1768906711831133  0.6124328531604766  0.3859250683618139  1.0000
  C   C24       1.0  0.8231093291500192  0.38756714668162595  0.6140749320020352  1.0000
  C   C25       1.0  0.27935618685549496  0.505889127088701  0.38581871150561625  1.0000
  C   C26       1.0  0.720643813631093  0.4941108729377432  0.6141812883734489  1.0000
  C   C27       1.0  0.4650951623454623  0.4749900726312756  0.40340016358094055  1.0000
  C   C28       1.0  0.5349048367843713  0.5250099273979819  0.5965998362976389  1.0000
  C   C29       1.0  0.5562511842219823  0.5454184398965232  0.42063324486092146  1.0000
  C   C30       1.0  0.44374881626460566  0.454581560129921  0.5793667550181437  1.0000
  C   C31       1.0  0.7126556452082865  0.28847528268862066  0.041372697710277365  1.0000
  C   C32       1.0  0.28734435392154717  0.7115247173406366  0.9586273021683022  1.0000
  C   C33       1.0  0.69194010032696  0.38425123590760285  0.06469170443923969  1.0000
  C   C34       1.0  0.3080598986494184  0.6157487639373128  0.9353082959241239  1.0000
  C   C35       1.0  0.7435562997773066  0.47582652945942056  0.023306456915390093  1.0000
  C   C36       1.0  0.256443700555826  0.524173470382682  0.976693543448459  1.0000
  C   C37       1.0  0.8163734534467677  0.47492859430158285  0.9591426542606182  1.0000
  C   C38       1.0  0.18362654688636482  0.5250714055405198  0.040857346103231044  1.0000
  C   C39       1.0  0.8365516846144314  0.38080726457608877  0.9357171454495462  1.0000
  C   C40       1.0  0.16344831587215625  0.6191927354503556  0.064282854429519  1.0000
  C   C41       1.0  0.7835955505465355  0.2888393860159038  0.9775533966634024  1.0000
  C   C42       1.0  0.21640444994005245  0.7111606140105404  0.02244660321566284  1.0000
  C   C43       1.0  0.31448775129771556  0.19409018254491636  0.0649935398688986  1.0000
  C   C44       1.0  0.6855122491888725  0.8059098174815277  0.9350064600101665  1.0000
  C   C45       1.0  0.19784160904619325  0.1293822148480609  0.05676568074825004  1.0000
  C   C46       1.0  0.8021583912869396  0.8706177849940416  0.9432343196155991  1.0000
  C   C47       1.0  0.2578603545246599  0.01544129502904247  0.06815180753188203  1.0000
  C   C48       1.0  0.7421396458084727  0.9845587048130601  0.9318481928319672  1.0000
  C   C49       1.0  0.5299328687675944  0.8484328706988209  0.1011633367855477  1.0000
  C   C50       1.0  0.4700671317189932  0.15156712932762353  0.8988366630935175  1.0000
  C   C51       1.0  0.7114685273524025  0.8157451450706167  0.11946776373894893  1.0000
  C   C52       1.0  0.28853147313418537  0.18425485495582755  0.8805322361401162  1.0000
  C   C53       1.0  0.8158562351274689  0.8896951714548111  0.12642146040852129  1.0000
  C   C54       1.0  0.1841437640023648  0.11030482857444623  0.873578539470058  1.0000
  C   C55       1.0  0.7307757497328142  0.001224014747885287  0.11417675287751773  1.0000
  C   C56       1.0  0.2692242507537735  0.9987759852785592  0.8858232470015475  1.0000
  C   C57       1.0  0.5469099428643268  0.034298622271835603  0.09467502048347541  1.0000
  C   C58       1.0  0.4530900561120515  0.9657013775730804  0.905324979879888  1.0000
  C   C59       1.0  0.4401960645702454  0.9625329794403468  0.08765021712737436  1.0000
  C   C60       1.0  0.5598039345595883  0.03746702058891055  0.912349782751205  1.0000
  C   C61       1.0  0.9465534692330613  0.30197958641053385  0.19238604323894845  1.0000
  C   C62       1.0  0.053446531253526504  0.6980204136159105  0.8076139566401167  1.0000
  C   C63       1.0  0.06196300408553605  0.3341644719891167  0.2263311228100688  1.0000
  C   C64       1.0  0.9380369964010515  0.6658355280373276  0.7736688770689963  1.0000
  C   C65       1.0  0.9964358952162119  0.4285305804065049  0.25090894385652895  1.0000
  C   C66       1.0  0.0035641039136217463  0.5714694196227524  0.7490910560220505  1.0000
  C   C67       1.0  0.715447752486576  0.5904324715247928  0.26386995596192236  1.0000
  C   C68       1.0  0.284552248000012  0.4095675285016515  0.7361300439171428  1.0000
  C   C69       1.0  0.5303665439842221  0.6392181212899983  0.25068573730630067  1.0000
  C   C70       1.0  0.4696334551456116  0.360781878739259  0.7493142625722788  1.0000
  C   C71       1.0  0.4258342691426391  0.5966546863353699  0.21726388145994446  1.0000
  C   C72       1.0  0.5741657311904933  0.40334531350673264  0.7827361189039047  1.0000
  C   C73       1.0  0.5157380692360733  0.5020255428288888  0.1953273878784688  1.0000
  C   C74       1.0  0.4842619312505145  0.49797445719755545  0.8046726120005965  1.0000
  C   C75       1.0  0.7042511889540535  0.4527061965832452  0.20897082118097976  1.0000
  C   C76       1.0  0.2957488115325345  0.5472938034431991  0.7910291786980854  1.0000
  C   C77       1.0  0.8095740754508676  0.4919116390462408  0.24319989820022472  1.0000
  C   C78       1.0  0.19042592367896594  0.5080883609830166  0.7568001016783548  1.0000
  C   C79       1.0  0.7726607478537983  0.8726220672232199  0.2914798464828242  1.0000
  C   C80       1.0  0.22733925211564665  0.12737793342353187  0.7085201538804489  1.0000
  C   C81       1.0  0.9760363526313547  0.875306081252547  0.2682691045319241  1.0000
  C   C82       1.0  0.023963646498479103  0.12469391877671027  0.7317308953466554  1.0000
  C   C83       1.0  0.03330612429486516  0.9823575953411243  0.26106810584377305  1.0000
  C   C84       1.0  0.966693874681513  0.01764240450379149  0.7389318945195904  1.0000
  N   N1        1.0  0.5479333753436245  0.3699166178432306  0.39784231119080227  1.0000
  N   N2        1.0  0.45206662514296336  0.6300833821832137  0.6021576886882628  1.0000
  N   N3        1.0  0.48499680244893173  0.14556801813960152  0.08412740068963014  1.0000
  N   N4        1.0  0.515003198037656  0.8544319818868427  0.9158725991894351  1.0000
  N   N5        1.0  0.7723826352041685  0.3622135830274456  0.18371462677665532  1.0000
  N   N6        1.0  0.22761736392566503  0.6377864170018118  0.8162853731019241  1.0000
  O   O1        1.0  0.23246499604172058  0.42324855667630246  0.3691203654529732  1.0000
  O   O2        1.0  0.7675350030881131  0.576751443352955  0.6308796344256062  1.0000
  O   O3        1.0  0.4646228334863262  0.29002871009710196  0.3136486311906303  1.0000
  O   O4        1.0  0.5353771670002616  0.7099712899293423  0.6863513686884348  1.0000
  O   O5        1.0  0.5042811413669187  0.13156397756052737  0.2667612035884423  1.0000
  O   O6        1.0  0.49571885911966895  0.868436022465917  0.7332387962906228  1.0000
  O   O7        1.0  0.7949467841254165  0.08817652358937803  0.11781472157646838  1.0000
  O   O8        1.0  0.2050532163611713  0.9118234764370663  0.8821852783025969  1.0000
  O   O9        1.0  0.5782790549894845  0.2498440240961168  0.1532789709281272  1.0000
  O   O10       1.0  0.42172094414034894  0.7501559759331407  0.8467210289504523  1.0000
  O   O11       1.0  0.4531669186417008  0.44620390133789073  0.16151265149068025  1.0000
  O   O12       1.0  0.5468330804881327  0.5537960986913668  0.8384873483878992  1.0000
  O   O13       1.0  0.09149738612179896  0.793804618235501  0.254748342841571  1.0000
  O   O14       1.0  0.9085026130080346  0.2061953817937564  0.7452516570370086  1.0000
  F   F1        1.0  0.3698885942043308  0.9460868266126277  0.383885069526687  1.0000
  F   F2        1.0  0.630111406282257  0.05391317341381659  0.6161149303523782  1.0000
  F   F3        1.0  0.2076079569797331  0.9093158877943388  0.5083522482177795  1.0000
  F   F4        1.0  0.7923920435068547  0.0906841122321054  0.4916477516612857  1.0000
  F   F5        1.0  0.13143962308763074  0.06779996257419936  0.5775550240880108  1.0000
  F   F6        1.0  0.8685603760422027  0.9322000374550582  0.4224449757905686  1.0000
  F   F7        1.0  0.21876720223577523  0.26753472544691115  0.524113746853428  1.0000
  F   F8        1.0  0.7812327968940582  0.7324652745823462  0.4758862530251515  1.0000
  F   F9        1.0  0.8084273474752736  0.19705648523685257  0.9533060917828231  1.0000
  F   F10       1.0  0.19157265165456014  0.8029435147924048  0.046693908095756395  1.0000
  F   F11       1.0  0.9089199151032866  0.37965268951234976  0.8737056884565906  1.0000
  F   F12       1.0  0.09108008538330109  0.6203473105140944  0.12629431142247471  1.0000
  F   F13       1.0  0.870994914150296  0.5638064787406764  0.9190468002032903  1.0000
  F   F14       1.0  0.12900508633629187  0.43619352128576805  0.0809531996757747  1.0000
  F   F15       1.0  0.7276521750274499  0.5704205612251456  0.043862667953580896  1.0000
  F   F16       1.0  0.27234782545913794  0.4295794388012988  0.9561373319254843  1.0000
