data_image0
_chemical_formula_structural       H64C64N16I8
_chemical_formula_sum              "H64 C64 N16 I8"
_cell_length_a       8.960538723136997
_cell_length_b       7.859424477965605
_cell_length_c       23.417135676389584
_cell_angle_alpha    90.0
_cell_angle_beta     90.0
_cell_angle_gamma    90.0

_space_group_name_H-M_alt    "P 1"
_space_group_IT_number       1

loop_
  _space_group_symop_operation_xyz
  'x, y, z'

loop_
  _atom_site_type_symbol
  _atom_site_label
  _atom_site_symmetry_multiplicity
  _atom_site_fract_x
  _atom_site_fract_y
  _atom_site_fract_z
  _atom_site_occupancy
  H   H1        1.0  0.2410540902437855  0.3695154941868899  0.4708592097844478  1.0000
  H   H2        1.0  0.7589459094061243  0.6304845060719579  0.9708592098615371  1.0000
  H   H3        1.0  0.7589459094061243  0.3695154941868899  0.029140790292641394  1.0000
  H   H4        1.0  0.2410540902437855  0.6304845060719579  0.5291407899426929  1.0000
  H   H5        1.0  0.7410540900687403  0.8695154943163138  0.4708592097844478  1.0000
  H   H6        1.0  0.25894590958116936  0.13048450594253397  0.9708592098615371  1.0000
  H   H7        1.0  0.25894590958116936  0.8695154943163138  0.029140790292641394  1.0000
  H   H8        1.0  0.7410540900687403  0.13048450594253397  0.5291407899426929  1.0000
  H   H9        1.0  0.7589459094061243  0.6304845060719579  0.5291407899426929  1.0000
  H   H10       1.0  0.2410540902437855  0.3695154941868899  0.029140790292641394  1.0000
  H   H11       1.0  0.2410540902437855  0.6304845060719579  0.9708592098615371  1.0000
  H   H12       1.0  0.7589459094061243  0.3695154941868899  0.4708592097844478  1.0000
  H   H13       1.0  0.25894590958116936  0.13048450594253397  0.5291407899426929  1.0000
  H   H14       1.0  0.7410540900687403  0.8695154943163138  0.029140790292641394  1.0000
  H   H15       1.0  0.7410540900687403  0.13048450594253397  0.9708592098615371  1.0000
  H   H16       1.0  0.25894590958116936  0.8695154943163138  0.4708592097844478  1.0000
  H   H17       1.0  0.6348350412583814  0.8597461975675175  0.33947864161778046  1.0000
  H   H18       1.0  0.3651649583915283  0.14025380269133036  0.8394786416948696  1.0000
  H   H19       1.0  0.3651649583915283  0.8597461975675175  0.16052135845930876  1.0000
  H   H20       1.0  0.6348350412583814  0.14025380269133036  0.6605213585363979  1.0000
  H   H21       1.0  0.13483504143342656  0.35974619743809355  0.33947864161778046  1.0000
  H   H22       1.0  0.8651649582164832  0.6402538015483965  0.8394786416948696  1.0000
  H   H23       1.0  0.8651649582164832  0.35974619743809355  0.16052135845930876  1.0000
  H   H24       1.0  0.13483504143342656  0.6402538015483965  0.6605213585363979  1.0000
  H   H25       1.0  0.3651649583915283  0.14025380269133036  0.6605213585363979  1.0000
  H   H26       1.0  0.6348350412583814  0.8597461975675175  0.16052135845930876  1.0000
  H   H27       1.0  0.6348350412583814  0.14025380269133036  0.8394786416948696  1.0000
  H   H28       1.0  0.3651649583915283  0.8597461975675175  0.33947864161778046  1.0000
  H   H29       1.0  0.8651649582164832  0.6402538015483965  0.6605213585363979  1.0000
  H   H30       1.0  0.13483504143342656  0.35974619743809355  0.16052135845930876  1.0000
  H   H31       1.0  0.13483504143342656  0.6402538015483965  0.8394786416948696  1.0000
  H   H32       1.0  0.8651649582164832  0.35974619743809355  0.33947864161778046  1.0000
  H   H33       1.0  0.733200351340031  0.022315446950563284  0.3013803898790114  1.0000
  H   H34       1.0  0.266799649425883  0.9776845520359267  0.8013803899561005  1.0000
  H   H35       1.0  0.266799649425883  0.022315446950563284  0.1986196101980778  1.0000
  H   H36       1.0  0.733200351340031  0.9776845520359267  0.698619610275167  1.0000
  H   H37       1.0  0.23320035151507623  0.5223154470799872  0.3013803898790114  1.0000
  H   H38       1.0  0.7667996492508379  0.47768455190650283  0.8013803899561005  1.0000
  H   H39       1.0  0.7667996492508379  0.5223154470799872  0.1986196101980778  1.0000
  H   H40       1.0  0.23320035151507623  0.47768455190650283  0.698619610275167  1.0000
  H   H41       1.0  0.266799649425883  0.9776845520359267  0.698619610275167  1.0000
  H   H42       1.0  0.733200351340031  0.022315446950563284  0.1986196101980778  1.0000
  H   H43       1.0  0.733200351340031  0.9776845520359267  0.8013803899561005  1.0000
  H   H44       1.0  0.266799649425883  0.022315446950563284  0.3013803898790114  1.0000
  H   H45       1.0  0.7667996492508379  0.47768455190650283  0.698619610275167  1.0000
  H   H46       1.0  0.23320035151507623  0.5223154470799872  0.1986196101980778  1.0000
  H   H47       1.0  0.23320035151507623  0.47768455190650283  0.8013803899561005  1.0000
  H   H48       1.0  0.7667996492508379  0.5223154470799872  0.3013803898790114  1.0000
  H   H49       1.0  0.4999999998249549  0.6451953911150224  0.21169490788739823  1.0000
  H   H50       1.0  0.4999999998249549  0.35480460914382533  0.7116949079644874  1.0000
  H   H51       1.0  0.4999999998249549  0.6451953911150224  0.28830509176265323  1.0000
  H   H52       1.0  0.4999999998249549  0.35480460914382533  0.7883050918397424  1.0000
  H   H53       1.0  0.0  0.14519539098559858  0.21169490788739823  1.0000
  H   H54       1.0  0.0  0.8548046080008914  0.7116949079644874  1.0000
  H   H55       1.0  0.0  0.14519539098559858  0.28830509176265323  1.0000
  H   H56       1.0  0.0  0.8548046080008914  0.7883050918397424  1.0000
  H   H57       1.0  0.6008921814150704  0.23465107339225594  0.2500000000385446  1.0000
  H   H58       1.0  0.3991078182348393  0.7653489255942341  0.7500000001156338  1.0000
  H   H59       1.0  0.3991078182348393  0.23465107339225594  0.2500000000385446  1.0000
  H   H60       1.0  0.6008921814150704  0.7653489255942341  0.7500000001156338  1.0000
  H   H61       1.0  0.10089218159011555  0.7346510735216799  0.2500000000385446  1.0000
  H   H62       1.0  0.8991078191757985  0.265348926737168  0.7500000001156338  1.0000
  H   H63       1.0  0.8991078191757985  0.7346510735216799  0.2500000000385446  1.0000
  H   H64       1.0  0.10089218159011555  0.265348926737168  0.7500000001156338  1.0000
  C   C1        1.0  0.0  0.05054314487195438  0.41555404744959495  1.0000
  C   C2        1.0  0.0  0.9494568553868934  0.9155540470996464  1.0000
  C   C3        1.0  0.0  0.05054314487195438  0.08444595262749423  1.0000
  C   C4        1.0  0.0  0.9494568553868934  0.5844459527045834  1.0000
  C   C5        1.0  0.4999999998249549  0.5505431450013782  0.41555404744959495  1.0000
  C   C6        1.0  0.4999999998249549  0.44945685525746953  0.9155540470996464  1.0000
  C   C7        1.0  0.4999999998249549  0.5505431450013782  0.08444595262749423  1.0000
  C   C8        1.0  0.4999999998249549  0.44945685525746953  0.5844459527045834  1.0000
  C   C9        1.0  0.0  0.19167716850304883  0.43766155441177085  1.0000
  C   C10       1.0  0.0  0.8083228304834411  0.9376615540618223  1.0000
  C   C11       1.0  0.0  0.19167716850304883  0.06233844566531835  1.0000
  C   C12       1.0  0.0  0.8083228304834411  0.5623384457424075  1.0000
  C   C13       1.0  0.4999999998249549  0.6916771686324727  0.43766155441177085  1.0000
  C   C14       1.0  0.4999999998249549  0.30832283035401725  0.9376615540618223  1.0000
  C   C15       1.0  0.4999999998249549  0.6916771686324727  0.06233844566531835  1.0000
  C   C16       1.0  0.4999999998249549  0.30832283035401725  0.5623384457424075  1.0000
  C   C17       1.0  0.0  0.3490484166736471  0.46725989724833006  1.0000
  C   C18       1.0  0.0  0.6509515835852008  0.9672598973254193  1.0000
  C   C19       1.0  0.0  0.3490484166736471  0.03274010282875918  1.0000
  C   C20       1.0  0.0  0.6509515835852008  0.5327401024788107  1.0000
  C   C21       1.0  0.4999999998249549  0.849048416803071  0.46725989724833006  1.0000
  C   C22       1.0  0.4999999998249549  0.15095158345577678  0.9672598973254193  1.0000
  C   C23       1.0  0.4999999998249549  0.849048416803071  0.03274010282875918  1.0000
  C   C24       1.0  0.4999999998249549  0.15095158345577678  0.5327401024788107  1.0000
  C   C25       1.0  0.13556277781195056  0.42646894303736677  0.48367264752280154  1.0000
  C   C26       1.0  0.8644372218379592  0.573531057221481  0.9836726475998907  1.0000
  C   C27       1.0  0.8644372218379592  0.42646894303736677  0.016327352554287654  1.0000
  C   C28       1.0  0.13556277781195056  0.573531057221481  0.5163273526313769  1.0000
  C   C29       1.0  0.6355627787529098  0.9264689431667906  0.48367264752280154  1.0000
  C   C30       1.0  0.36443722201300427  0.07353105709205711  0.9836726475998907  1.0000
  C   C31       1.0  0.36443722201300427  0.9264689431667906  0.016327352554287654  1.0000
  C   C32       1.0  0.6355627787529098  0.07353105709205711  0.5163273526313769  1.0000
  C   C33       1.0  0.8644372218379592  0.573531057221481  0.5163273526313769  1.0000
  C   C34       1.0  0.13556277781195056  0.42646894303736677  0.016327352554287654  1.0000
  C   C35       1.0  0.13556277781195056  0.573531057221481  0.9836726475998907  1.0000
  C   C36       1.0  0.8644372218379592  0.42646894303736677  0.48367264752280154  1.0000
  C   C37       1.0  0.36443722201300427  0.07353105709205711  0.5163273526313769  1.0000
  C   C38       1.0  0.6355627787529098  0.9264689431667906  0.016327352554287654  1.0000
  C   C39       1.0  0.6355627787529098  0.07353105709205711  0.9836726475998907  1.0000
  C   C40       1.0  0.36443722201300427  0.9264689431667906  0.48367264752280154  1.0000
  C   C41       1.0  0.6340879131886468  0.9401443083670453  0.3011673587009485  1.0000
  C   C42       1.0  0.365912086461263  0.0598556918918025  0.8011673587780377  1.0000
  C   C43       1.0  0.365912086461263  0.9401443083670453  0.1988326413761407  1.0000
  C   C44       1.0  0.6340879131886468  0.0598556918918025  0.6988326414532299  1.0000
  C   C45       1.0  0.13408791336369189  0.4401443082376214  0.3011673587009485  1.0000
  C   C46       1.0  0.8659120862862179  0.5598556920212264  0.8011673587780377  1.0000
  C   C47       1.0  0.8659120862862179  0.4401443082376214  0.1988326413761407  1.0000
  C   C48       1.0  0.13408791336369189  0.5598556920212264  0.6988326414532299  1.0000
  C   C49       1.0  0.365912086461263  0.0598556918918025  0.6988326414532299  1.0000
  C   C50       1.0  0.6340879131886468  0.9401443083670453  0.1988326413761407  1.0000
  C   C51       1.0  0.6340879131886468  0.0598556918918025  0.8011673587780377  1.0000
  C   C52       1.0  0.365912086461263  0.9401443083670453  0.3011673587009485  1.0000
  C   C53       1.0  0.8659120862862179  0.5598556920212264  0.6988326414532299  1.0000
  C   C54       1.0  0.13408791336369189  0.4401443082376214  0.1988326413761407  1.0000
  C   C55       1.0  0.13408791336369189  0.5598556920212264  0.8011673587780377  1.0000
  C   C56       1.0  0.8659120862862179  0.4401443082376214  0.3011673587009485  1.0000
  C   C57       1.0  0.4999999998249549  0.7263447032291698  0.2500000000385446  1.0000
  C   C58       1.0  0.4999999998249549  0.27365529702967806  0.7500000001156338  1.0000
  C   C59       1.0  0.0  0.22634470309974586  0.2500000000385446  1.0000
  C   C60       1.0  0.0  0.773655297159102  0.7500000001156338  1.0000
  C   C61       1.0  0.4999999998249549  0.15517833187649563  0.2500000000385446  1.0000
  C   C62       1.0  0.4999999998249549  0.8448216671099944  0.7500000001156338  1.0000
  C   C63       1.0  0.0  0.6551783320059195  0.2500000000385446  1.0000
  C   C64       1.0  0.0  0.3448216682529283  0.7500000001156338  1.0000
  N   N1        1.0  0.4999999998249549  0.049990058572545695  0.30226476533321694  1.0000
  N   N2        1.0  0.4999999998249549  0.9500099416863022  0.8022647654103061  1.0000
  N   N3        1.0  0.4999999998249549  0.049990058572545695  0.19773523474387225  1.0000
  N   N4        1.0  0.4999999998249549  0.9500099416863022  0.6977352348209616  1.0000
  N   N5        1.0  0.0  0.5499900587019696  0.30226476533321694  1.0000
  N   N6        1.0  0.0  0.4500099415568782  0.8022647654103061  1.0000
  N   N7        1.0  0.0  0.5499900587019696  0.19773523474387225  1.0000
  N   N8        1.0  0.0  0.4500099415568782  0.6977352348209616  1.0000
  N   N9        1.0  0.6369089879901795  0.8310713982063388  0.2500000000385446  1.0000
  N   N10       1.0  0.36309101165973023  0.16892860078015118  0.7500000001156338  1.0000
  N   N11       1.0  0.36309101165973023  0.8310713982063388  0.2500000000385446  1.0000
  N   N12       1.0  0.6369089879901795  0.16892860078015118  0.7500000001156338  1.0000
  N   N13       1.0  0.1369089881652246  0.33107139807691494  0.2500000000385446  1.0000
  N   N14       1.0  0.8630910114846851  0.6689286009095751  0.7500000001156338  1.0000
  N   N15       1.0  0.8630910114846851  0.33107139807691494  0.2500000000385446  1.0000
  N   N16       1.0  0.1369089881652246  0.6689286009095751  0.7500000001156338  1.0000
  I   I1        1.0  0.0  0.8211137874144278  0.376412832116238  1.0000
  I   I2        1.0  0.0  0.17888621284442002  0.8764128321933272  1.0000
  I   I3        1.0  0.0  0.8211137874144278  0.12358716796085117  1.0000
  I   I4        1.0  0.0  0.17888621284442002  0.6235871676109027  1.0000
  I   I5        1.0  0.4999999998249549  0.32111378728500384  0.376412832116238  1.0000
  I   I6        1.0  0.4999999998249549  0.6788862129738439  0.8764128321933272  1.0000
  I   I7        1.0  0.4999999998249549  0.32111378728500384  0.12358716796085117  1.0000
  I   I8        1.0  0.4999999998249549  0.6788862129738439  0.6235871676109027  1.0000
