data_image0
_chemical_formula_structural       H20C26O2I4
_chemical_formula_sum              "H20 C26 O2 I4"
_cell_length_a       4.147083701804519
_cell_length_b       13.949946827962734
_cell_length_c       11.592418799394954
_cell_angle_alpha    90.0
_cell_angle_beta     89.79112152302064
_cell_angle_gamma    90.0

_space_group_name_H-M_alt    "P 1"
_space_group_IT_number       1

loop_
  _space_group_symop_operation_xyz
  'x, y, z'

loop_
  _atom_site_type_symbol
  _atom_site_label
  _atom_site_symmetry_multiplicity
  _atom_site_fract_x
  _atom_site_fract_y
  _atom_site_fract_z
  _atom_site_occupancy
  H   H1        1.0  0.466860193700274  0.4045081963100278  0.45609900732834635  1.0000
  H   H2        1.0  0.5331398053301963  0.9045081960246242  0.5439009926409413  1.0000
  H   H3        1.0  0.5331398053301963  0.5954918038360132  0.5439009926409413  1.0000
  H   H4        1.0  0.466860193700274  0.09549180412141701  0.45609900732834635  1.0000
  H   H5        1.0  0.29983297815822046  0.25000000021572244  0.36925225492473923  1.0000
  H   H6        1.0  0.7001670232835854  0.7499999999303186  0.6307477450385188  1.0000
  H   H7        1.0  0.9908153720078122  0.25000000021572244  0.7175623418714452  1.0000
  H   H8        1.0  0.009184629433993886  0.7499999999303186  0.2824376580918131  1.0000
  H   H9        1.0  0.5192927022832543  0.40427633592805734  0.9545262732461657  1.0000
  H   H10       1.0  0.4807072967472161  0.9042763363595021  0.04547372672312204  1.0000
  H   H11       1.0  0.4807072967472161  0.5957236642179837  0.04547372672312204  1.0000
  H   H12       1.0  0.5192927022832543  0.09572366378653893  0.9545262732461657  1.0000
  H   H13       1.0  0.4906462357427789  0.3442197521767376  0.8180164534996839  1.0000
  H   H14       1.0  0.509353765699027  0.8442197518913338  0.18198354646357426  1.0000
  H   H15       1.0  0.509353765699027  0.6557802479693033  0.18198354646357426  1.0000
  H   H16       1.0  0.4906462357427789  0.1557802482547072  0.8180164534996839  1.0000
  H   H17       1.0  0.15539388485295683  0.346201013491985  0.9115418351900186  1.0000
  H   H18       1.0  0.8446061141775134  0.8462010132065813  0.08845816477926896  1.0000
  H   H19       1.0  0.8446061141775134  0.6537989866540561  0.08845816477926896  1.0000
  H   H20       1.0  0.15539388485295683  0.15379898693945984  0.9115418351900186  1.0000
  C   C1        1.0  0.9303033526412012  0.49270910239044824  0.7047052158716244  1.0000
  C   C2        1.0  0.06969664638926903  0.9927091021050445  0.2952947840976633  1.0000
  C   C3        1.0  0.06969664638926903  0.5072908977555929  0.2952947840976633  1.0000
  C   C4        1.0  0.9303033526412012  0.007290898040996583  0.7047052158716244  1.0000
  C   C5        1.0  0.8377595597508348  0.42383487140957543  0.6486737901866142  1.0000
  C   C6        1.0  0.1622404392796354  0.9238348718410202  0.3513262097826735  1.0000
  C   C7        1.0  0.1622404392796354  0.5761651280196171  0.3513262097826735  1.0000
  C   C8        1.0  0.8377595597508348  0.07616512830502083  0.6486737901866142  1.0000
  C   C9        1.0  0.7379644214251223  0.33778554198891947  0.5938875042076803  1.0000
  C   C10       1.0  0.262035577605348  0.8377855424203643  0.40611249576160724  1.0000
  C   C11       1.0  0.262035577605348  0.6622144581571217  0.40611249576160724  1.0000
  C   C12       1.0  0.7379644214251223  0.1622144577256768  0.5938875042076803  1.0000
  C   C13       1.0  0.5443448705801829  0.3370879249929541  0.4943276415284226  1.0000
  C   C14       1.0  0.45565512845028733  0.8370879254243989  0.5056723584408649  1.0000
  C   C15       1.0  0.45565512845028733  0.6629120751530869  0.5056723584408649  1.0000
  C   C16       1.0  0.5443448705801829  0.16291207472164215  0.4943276415284226  1.0000
  C   C17       1.0  0.45139387956621446  0.25000000021572244  0.44579976113905523  1.0000
  C   C18       1.0  0.5486061218755914  0.7499999999303186  0.5542002388242029  1.0000
  C   C19       1.0  0.8343720453741428  0.25000000021572244  0.6423497572649196  1.0000
  C   C20       1.0  0.16562795606766306  0.7499999999303186  0.3576502426983385  1.0000
  C   C21       1.0  0.5274811020090758  0.25000000021572244  0.9636829240964208  1.0000
  C   C22       1.0  0.47251889943273  0.7499999999303186  0.036317075866837384  1.0000
  C   C23       1.0  0.41993290813856504  0.34198459670377923  0.9095228468237082  1.0000
  C   C24       1.0  0.5800670908919051  0.8419845964183755  0.09047715314557939  1.0000
  C   C25       1.0  0.5800670908919051  0.6580154034422618  0.09047715314557939  1.0000
  C   C26       1.0  0.41993290813856504  0.15801540372766562  0.9095228468237082  1.0000
  O   O1        1.0  0.7033107832330893  0.25000000021572244  0.05020220478046379  1.0000
  O   O2        1.0  0.29668921579738095  0.7499999999303186  0.9497977951888237  1.0000
  I   I1        1.0  0.08695205387030434  0.5990640819682932  0.8048472526183384  1.0000
  I   I2        1.0  0.913047945160166  0.0990640815368484  0.19515274735094915  1.0000
  I   I3        1.0  0.913047945160166  0.4009359181777479  0.19515274735094915  1.0000
  I   I4        1.0  0.08695205387030434  0.9009359178923442  0.8048472526183384  1.0000
