data_image0
_chemical_formula_structural       H20C20N10O14Cl2
_chemical_formula_sum              "H20 C20 N10 O14 Cl2"
_cell_length_a       8.106140206738402
_cell_length_b       9.87986812356178
_cell_length_c       9.970137316057809
_cell_angle_alpha    116.44641893916243
_cell_angle_beta     106.70771545672285
_cell_angle_gamma    90.88354911253211

_space_group_name_H-M_alt    "P 1"
_space_group_IT_number       1

loop_
  _space_group_symop_operation_xyz
  'x, y, z'

loop_
  _atom_site_type_symbol
  _atom_site_label
  _atom_site_symmetry_multiplicity
  _atom_site_fract_x
  _atom_site_fract_y
  _atom_site_fract_z
  _atom_site_occupancy
  H   H1        1.0  0.30407131799006126  0.5311621540745279  0.5255302015984852  1.0000
  H   H2        1.0  0.6959286814075986  0.4688378454955477  0.4744697978156466  1.0000
  H   H3        1.0  0.4884447495288005  0.7930812110430299  0.7244514381920651  1.0000
  H   H4        1.0  0.5115552503296362  0.20691879008194633  0.2755485623976119  1.0000
  H   H5        1.0  0.22383571810670044  0.8073951195569287  0.04950875718162653  1.0000
  H   H6        1.0  0.7761642817151833  0.19260488056075997  0.9504912434186232  1.0000
  H   H7        1.0  0.04923691237533516  0.5456992776975497  0.8380339088573461  1.0000
  H   H8        1.0  0.9507630886816288  0.4543007224051264  0.16196609174835316  1.0000
  H   H9        1.0  0.1082622474549397  0.4271127154719904  0.5959776006062243  1.0000
  H   H10       1.0  0.8917377523669439  0.5728872846456982  0.4040223999940254  1.0000
  H   H11       1.0  0.1925244781808231  0.987429898706425  0.5341251137681381  1.0000
  H   H12       1.0  0.8074755216410606  0.012570101411263707  0.4658748868321117  1.0000
  H   H13       1.0  0.39006825209663726  0.23936998804254112  0.6428798123151359  1.0000
  H   H14       1.0  0.6099317489603269  0.7606300120601349  0.35712018829056336  1.0000
  H   H15       1.0  0.288340425688793  0.3817886292833216  0.08527424408316646  1.0000
  H   H16       1.0  0.7116595737088668  0.6182113702867541  0.9147257553309652  1.0000
  H   H17       1.0  0.09696612590123092  0.1228949913251031  0.9596106935467128  1.0000
  H   H18       1.0  0.9030338739206526  0.8771050087925857  0.04038930705353698  1.0000
  H   H19       1.0  0.05574734979567828  0.9472085028893827  0.6939215000790389  1.0000
  H   H20       1.0  0.9442526496385346  0.05279149768798028  0.30607849932452  1.0000
  C   C1        1.0  0.2922107497347088  0.6000849392382118  0.6422026628463382  1.0000
  C   C2        1.0  0.707789249662951  0.39991506033186375  0.3577973365677936  1.0000
  C   C3        1.0  0.38966842834107485  0.743294617903639  0.7510886836578934  1.0000
  C   C4        1.0  0.6103315722916652  0.25670538165142404  0.24891131576168776  1.0000
  C   C5        1.0  0.3642967972072552  0.8183471386691753  0.8984308023915725  1.0000
  C   C6        1.0  0.6357032034254849  0.18165286088588778  0.10156919702800872  1.0000
  C   C7        1.0  0.24079166665659546  0.7504987692992267  0.9335378511990792  1.0000
  C   C8        1.0  0.7592083344003686  0.24950123080344946  0.06646214940662001  1.0000
  C   C9        1.0  0.14510431961548248  0.6076854565396176  0.8192986496478311  1.0000
  C   C10       1.0  0.8548956797821773  0.3923145430304581  0.18070134976630065  1.0000
  C   C11       1.0  0.21790397388831026  0.07905191764613649  0.6539864961842258  1.0000
  C   C12       1.0  0.7820960255093494  0.9209480819239391  0.34601350322990587  1.0000
  C   C13       1.0  0.3251495868598911  0.217066992313738  0.714263781847501  1.0000
  C   C14       1.0  0.6748504129985459  0.7829330088112382  0.2857362187421761  1.0000
  C   C15       1.0  0.3521319805746915  0.32623480901123425  0.8712818230862058  1.0000
  C   C16       1.0  0.6478680188595215  0.6737651915661289  0.12871817631735313  1.0000
  C   C17       1.0  0.27037115914807397  0.29674524711015443  0.9639914447052645  1.0000
  C   C18       1.0  0.7296288415212193  0.7032547534521961  0.036008554703743825  1.0000
  C   C19       1.0  0.16264573271262006  0.157365835446503  0.8959870522639463  1.0000
  C   C20       1.0  0.8373542666850398  0.8426341641235728  0.10401294715018554  1.0000
  N   N1        1.0  0.17397079966044393  0.5372008014851409  0.678774539419553  1.0000
  N   N2        1.0  0.8260291997372158  0.4627991980849346  0.32122545999457874  1.0000
  N   N3        1.0  0.47194329579348515  0.9572590966423854  0.023004910047121397  1.0000
  N   N4        1.0  0.5280567048392552  0.042740902912677785  0.9769950893724599  1.0000
  N   N5        1.0  0.13950922918997355  0.053314328890373526  0.744519259578276  1.0000
  N   N6        1.0  0.8604907718669905  0.9466856712123026  0.25548074102742313  1.0000
  N   N7        1.0  0.4567013072286855  0.46859691236506146  0.9272780857457078  1.0000
  N   N8        1.0  0.5432986922055275  0.5314030882123018  0.07272191365785116  1.0000
  N   N9        1.0  0.1466003527440653  0.21685643289501422  0.29130217257165597  1.0000
  N   N10       1.0  0.8533996466535945  0.7831435666750615  0.7086978268424757  1.0000
  O   O1        1.0  0.07109406184607132  0.22865061811241993  0.39350236697367946  1.0000
  O   O2        1.0  0.9289059387866688  0.7713493814426431  0.6064976324459016  1.0000
  O   O3        1.0  0.1169447993113035  0.09085408957494451  0.16772664069515233  1.0000
  O   O4        1.0  0.8830552013214368  0.9091459099801187  0.8322733587244289  1.0000
  O   O5        1.0  0.24421213768282252  0.3312659183695909  0.3160731725466255  1.0000
  O   O6        1.0  0.7557878621390612  0.6687340817480979  0.6839268280536244  1.0000
  O   O7        1.0  0.09051239627593657  0.7217740852462773  0.38389159494259006  1.0000
  O   O8        1.0  0.9094876043933569  0.2782259153160732  0.6161084044664183  1.0000
  O   O9        1.0  0.2648712481703868  0.863827543680606  0.31767669701293494  1.0000
  O   O10       1.0  0.7351287512272731  0.13617245588946966  0.6823233024011969  1.0000
  O   O11       1.0  0.378579469921306  0.6720202948126389  0.38567416497670515  1.0000
  O   O12       1.0  0.621420531135658  0.32797970529003717  0.614325835628994  1.0000
  O   O13       1.0  0.15009857947567784  0.5990648266818718  0.1396523346825355  1.0000
  O   O14       1.0  0.8499014211570624  0.4009351728731912  0.8603476647370457  1.0000
  Cl  Cl1       1.0  0.22236175069840677  0.7139573762849419  0.3066105436552698  1.0000
  Cl  Cl2       1.0  0.77763824916003  0.28604262484003423  0.6933894569344071  1.0000
