data_image0
_chemical_formula_structural       H22C28N4O12Cl2
_chemical_formula_sum              "H22 C28 N4 O12 Cl2"
_cell_length_a       8.186068550375216
_cell_length_b       7.403176711648421
_cell_length_c       12.1423826375874
_cell_angle_alpha    74.96331954540462
_cell_angle_beta     84.52004450027609
_cell_angle_gamma    84.3612766207331

_space_group_name_H-M_alt    "P 1"
_space_group_IT_number       1

loop_
  _space_group_symop_operation_xyz
  'x, y, z'

loop_
  _atom_site_type_symbol
  _atom_site_label
  _atom_site_symmetry_multiplicity
  _atom_site_fract_x
  _atom_site_fract_y
  _atom_site_fract_z
  _atom_site_occupancy
  H   H1        1.0  0.367316204739288  0.9446872516288669  0.030318761486254644  1.0000
  H   H2        1.0  0.6326837947394897  0.05531274749101176  0.969681238080792  1.0000
  H   H3        1.0  0.08494411129728434  0.10774392913146946  0.02418986505669158  1.0000
  H   H4        1.0  0.9150558880063059  0.89225607109795  0.9758101353092479  1.0000
  H   H5        1.0  0.021534748808443083  0.925789802429055  0.39153057701450794  1.0000
  H   H6        1.0  0.9784652518934043  0.07421019671954536  0.608469422515574  1.0000
  H   H7        1.0  0.7230585830848694  0.6782098692927088  0.13882505597620168  1.0000
  H   H8        1.0  0.2769414163939083  0.32179012982717  0.8611749435908448  1.0000
  H   H9        1.0  0.9610284223108839  0.6445598104440176  0.5405038051557327  1.0000
  H   H10       1.0  0.03897157821577626  0.3554401898141233  0.4594961951732423  1.0000
  H   H11       1.0  0.6999112700160316  0.8356353873463567  0.4843050847883247  1.0000
  H   H12       1.0  0.30008873051062834  0.16436461291178414  0.5156949155406505  1.0000
  H   H13       1.0  0.4748917656432856  0.8570282847353109  0.6362976618396267  1.0000
  H   H14       1.0  0.525108233835492  0.14297171438456777  0.36370233772741983  1.0000
  H   H15       1.0  0.5132942425230392  0.7047669191045536  0.8375026971778907  1.0000
  H   H16       1.0  0.48670575691066575  0.29523307974809015  0.16249730324170128  1.0000
  H   H17       1.0  0.8870790432910501  0.43438246864922503  0.9444389846542499  1.0000
  H   H18       1.0  0.11292095723560988  0.5656175316089158  0.055561015674725135  1.0000
  H   H19       1.0  0.6868282599855384  0.5162408227404218  0.9785986051426054  1.0000
  H   H20       1.0  0.3131717405411216  0.4837591775177191  0.021401395186369566  1.0000
  H   H21       1.0  0.23078580423775596  0.33237709822786665  0.6783655448439424  1.0000
  H   H22       1.0  0.769214196288904  0.6676229020302744  0.32163445548503267  1.0000
  C   C1        1.0  0.533674201920173  0.7832655308262567  0.2153306319847323  1.0000
  C   C2        1.0  0.46632579738341723  0.21673446940316268  0.7846693683812072  1.0000
  C   C3        1.0  0.3566451266270129  0.849933723346514  0.2138584829987128  1.0000
  C   C4        1.0  0.6433548740297618  0.15006627553485116  0.7861415173839148  1.0000
  C   C5        1.0  0.290959921342349  0.9407510705939445  0.10923951038045236  1.0000
  C   C6        1.0  0.709040079184311  0.05924892966419641  0.8907604899485227  1.0000
  C   C7        1.0  0.13370970397114867  0.0309752509328364  0.10478636174101144  1.0000
  C   C8        1.0  0.8662902966005838  0.9690247495925395  0.8952136377354181  1.0000
  C   C9        1.0  0.04152986405568504  0.02518773118380111  0.20819033220898572  1.0000
  C   C10       1.0  0.9584701352929778  0.9748122693128531  0.7918096673044083  1.0000
  C   C11       1.0  0.09898240322795036  0.9293069793487849  0.3134112664176061  1.0000
  C   C12       1.0  0.9010175972987096  0.07069302090935602  0.686588733911369  1.0000
  C   C13       1.0  0.25706168415907577  0.8405301736392892  0.3167118764322469  1.0000
  C   C14       1.0  0.7429383151895871  0.1594698268573652  0.6832881230811471  1.0000
  C   C15       1.0  0.04262585054285237  0.4571394090387058  0.7455186511454898  1.0000
  C   C16       1.0  0.9573741488058104  0.5428605914579486  0.25448134836790404  1.0000
  C   C17       1.0  0.8885922885482559  0.5708640359827992  0.720160935312192  1.0000
  C   C18       1.0  0.111407710800407  0.42913596451385533  0.2798390642012018  1.0000
  C   C19       1.0  0.8625012906614546  0.6605921462674991  0.604674155743917  1.0000
  C   C20       1.0  0.13749870991027793  0.33940785425787695  0.39532584373251256  1.0000
  C   C21       1.0  0.7176472380403564  0.7658040863649065  0.5734193068839171  1.0000
  C   C22       1.0  0.2823527613083066  0.23419591413174778  0.4265806926294769  1.0000
  C   C23       1.0  0.591500094027002  0.7783618067856637  0.6587576661295457  1.0000
  C   C24       1.0  0.4084999052765882  0.2216381934437556  0.3412423342363939  1.0000
  C   C25       1.0  0.6129167036424729  0.6929087542883681  0.7725862234234591  1.0000
  C   C26       1.0  0.38708329583630474  0.3070912448315105  0.22741377614358738  1.0000
  C   C27       1.0  0.7629832714033992  0.5906441999996812  0.8073479054040711  1.0000
  C   C28       1.0  0.2370167279001912  0.4093558002297381  0.1926520949618685  1.0000
  N   N1        1.0  0.8764472248618059  0.12281755348602168  0.20854811209519158  1.0000
  N   N2        1.0  0.12355277566485413  0.8771824467721194  0.7914518882337835  1.0000
  N   N3        1.0  0.78311076505907  0.5154439753419161  0.9200352855866609  1.0000
  N   N4        1.0  0.21688923559770495  0.484556023539449  0.0799647147959666  1.0000
  O   O1        1.0  0.6148375680198506  0.7969149092808633  0.29372903612339024  1.0000
  O   O2        1.0  0.3851624325518821  0.20308509124451274  0.7062709633530393  1.0000
  O   O3        1.0  0.5987072446022622  0.7179795788927813  0.1277213293601096  1.0000
  O   O4        1.0  0.40129275596947034  0.2820204216325947  0.8722786701163199  1.0000
  O   O5        1.0  0.8130609420946167  0.18262234914752007  0.11536677170870896  1.0000
  O   O6        1.0  0.186939057384161  0.8173776499723586  0.8846332278583374  1.0000
  O   O7        1.0  0.8091992262617164  0.14057979030112505  0.3012834826727973  1.0000
  O   O8        1.0  0.1908007742649437  0.859420209957016  0.6987165176561777  1.0000
  O   O9        1.0  0.09285795529507768  0.39578319645845533  0.8449012585624599  1.0000
  O   O10       1.0  0.907142044053585  0.604216804038199  0.1550987409509341  1.0000
  O   O11       1.0  0.1279752001078214  0.4194160617786967  0.6547393328806166  1.0000
  O   O12       1.0  0.8720247992408415  0.5805839387179577  0.3452606666327773  1.0000
  Cl  Cl1       1.0  0.3197552738311291  0.7189671539853336  0.4480588803083328  1.0000
  Cl  Cl2       1.0  0.6802447267406033  0.28103284654004224  0.5519411191680967  1.0000
