data_image0
_chemical_formula_structural       H40C20N8O24
_chemical_formula_sum              "H40 C20 N8 O24"
_cell_length_a       8.864997153501207
_cell_length_b       6.921067168946378
_cell_length_c       13.333755237682082
_cell_angle_alpha    90.0
_cell_angle_beta     94.56604536208638
_cell_angle_gamma    90.0

_space_group_name_H-M_alt    "P 1"
_space_group_IT_number       1

loop_
  _space_group_symop_operation_xyz
  'x, y, z'

loop_
  _atom_site_type_symbol
  _atom_site_label
  _atom_site_symmetry_multiplicity
  _atom_site_fract_x
  _atom_site_fract_y
  _atom_site_fract_z
  _atom_site_occupancy
  H   H1        1.0  0.19074184337777156  0.6129717435824049  0.4245731991635383  1.0000
  H   H2        1.0  0.8092581572910286  0.1129717442287198  0.07542680053748806  1.0000
  H   H3        1.0  0.8092581573697932  0.3870282565698292  0.5754268004038919  1.0000
  H   H4        1.0  0.19074184346883122  0.8870282559235143  0.924573199780525  1.0000
  H   H5        1.0  0.37139587591867934  0.1837256248148185  0.5214711962649812  1.0000
  H   H6        1.0  0.6286041237760934  0.6837256241685036  0.9785288031171105  1.0000
  H   H7        1.0  0.6286041236973289  0.8162743753374156  0.4785288032507067  1.0000
  H   H8        1.0  0.37139587583991474  0.3162743759837305  0.02147119639857734  1.0000
  H   H9        1.0  0.21979688926673596  0.947803906517877  0.41776509327394556  1.0000
  H   H10       1.0  0.7802031102705077  0.4478039071641919  0.08223490637533849  1.0000
  H   H11       1.0  0.7802031103492721  0.052196093634357114  0.5822349062417423  1.0000
  H   H12       1.0  0.21979688935779562  0.5521960929880423  0.9177650938909322  1.0000
  H   H13       1.0  0.5556958194180853  0.37035109722684717  0.44663725314091757  1.0000
  H   H14       1.0  0.44430418125071486  0.8703510980253962  0.05336274656010884  1.0000
  H   H15       1.0  0.4443041813294794  0.629648902925387  0.5533627464265126  1.0000
  H   H16       1.0  0.5556958183652932  0.1296489021268379  0.946637252955579  1.0000
  H   H17       1.0  0.5925000090544776  0.1298678047849132  0.4190119971311206  1.0000
  H   H18       1.0  0.40749999162661765  0.6298678055834622  0.08098800332048861  1.0000
  H   H19       1.0  0.40749999170538226  0.8701321953673209  0.5809880031868925  1.0000
  H   H20       1.0  0.5925000091332423  0.37013219456877194  0.9190119969975243  1.0000
  H   H21       1.0  0.645509353300013  0.3968401336029975  0.19647762829696752  1.0000
  H   H22       1.0  0.35449064623723053  0.8968401329566825  0.3035223713523166  1.0000
  H   H23       1.0  0.35449064631599514  0.6031598665492367  0.8035223712187204  1.0000
  H   H24       1.0  0.6455093533910726  0.10315986719555152  0.6964776289139541  1.0000
  H   H25       1.0  0.9468348964896617  0.49429480981627294  0.36335567033470556  1.0000
  H   H26       1.0  0.05316510305987711  0.994294809169958  0.13664433006516133  1.0000
  H   H27       1.0  0.053165103138641694  0.5057051903359612  0.6366443299315652  1.0000
  H   H28       1.0  0.946834896568426  0.0057051909822760935  0.8633556702011093  1.0000
  H   H29       1.0  0.7853987743290309  0.6222879326073145  0.3144165290931678  1.0000
  H   H30       1.0  0.21460122522050767  0.12228793325362934  0.18558347130669897  1.0000
  H   H31       1.0  0.21460122529927225  0.3777120675449197  0.6855834711731027  1.0000
  H   H32       1.0  0.7853987744077956  0.8777120668986048  0.8144165289595717  1.0000
  H   H33       1.0  0.9549327990878477  0.0785791680277527  0.3713227821130118  1.0000
  H   H34       1.0  0.04506720044939576  0.5785791673814379  0.12867721753627237  1.0000
  H   H35       1.0  0.04506720052816035  0.9214208321244814  0.6286772174026762  1.0000
  H   H36       1.0  0.9549327991789075  0.42142083277079634  0.8713227827299982  1.0000
  H   H37       1.0  0.7899452045709491  0.9611633014988791  0.3181114327676326  1.0000
  H   H38       1.0  0.21005479497858962  0.46116330214519385  0.1818885676322342  1.0000
  H   H39       1.0  0.2100547950573542  0.03883669720849122  0.681888567498638  1.0000
  H   H40       1.0  0.7899452046497136  0.5388366980070403  0.8181114326340364  1.0000
  C   C1        1.0  0.23245019279130086  0.33214791792722315  0.41226237261355747  1.0000
  C   C2        1.0  0.7675498078897945  0.8321479172809083  0.08773762783805172  1.0000
  C   C3        1.0  0.7675498068370025  0.667852082225011  0.5877376276527132  1.0000
  C   C4        1.0  0.2324501928700654  0.16785208287132589  0.9122623724799612  1.0000
  C   C5        1.0  0.3585566055067912  0.18551017330979866  0.43811121202816783  1.0000
  C   C6        1.0  0.6414433940304523  0.6855101741083476  0.061888787621116256  1.0000
  C   C7        1.0  0.6414433941092169  0.8144898268424354  0.5618887874875201  1.0000
  C   C8        1.0  0.35855660559785085  0.3144898260438865  0.9381112126451544  1.0000
  C   C9        1.0  0.5102326387976086  0.24624758413657358  0.4026821315812909  1.0000
  C   C10       1.0  0.48976736073963495  0.7462475849351226  0.0973178680679932  1.0000
  C   C11       1.0  0.48976736081839956  0.7537524145707967  0.597317867934397  1.0000
  C   C12       1.0  0.5102326388763732  0.25375241521711156  0.9026821314476947  1.0000
  C   C13       1.0  0.5094370879847512  0.29978000637087515  0.29332502721175563  1.0000
  C   C14       1.0  0.49056291156478743  0.7997800071694242  0.20667497318811118  1.0000
  C   C15       1.0  0.49056291164355204  0.700219993781359  0.7066749730545151  1.0000
  C   C16       1.0  0.5094370880635158  0.20021999298280996  0.7933250270781596  1.0000
  C   C17       1.0  0.9600319972062902  0.7863875320297686  0.37872666315720027  1.0000
  C   C18       1.0  0.03996800347480524  0.2863875312312197  0.12127333729440888  1.0000
  C   C19       1.0  0.03996800242201315  0.2136124681224654  0.6212733371090704  1.0000
  C   C20       1.0  0.9600319972850545  0.7136124689210144  0.878726663023604  1.0000
  N   N1        1.0  0.8873842363330191  0.6206425562914921  0.3548596837580815  1.0000
  N   N2        1.0  0.11261576320422446  0.120642556937807  0.1451403158912026  1.0000
  N   N3        1.0  0.11261576329528412  0.379357443860742  0.6451403165081891  1.0000
  N   N4        1.0  0.8873842364117837  0.8793574432144272  0.8548596836244854  1.0000
  N   N5        1.0  0.8907771236485  0.9568080193922052  0.3600610814378977  1.0000
  N   N6        1.0  0.10922287588874359  0.45680802003852006  0.1399389182113864  1.0000
  N   N7        1.0  0.10922287596750817  0.043191980760028954  0.6399389180777902  1.0000
  N   N8        1.0  0.8907771237395596  0.5431919801137141  0.8600610820548842  1.0000
  O   O1        1.0  0.10117966819624885  0.28612115034587415  0.38376969379737047  1.0000
  O   O2        1.0  0.8988203313409947  0.7861211496995593  0.11623030585191364  1.0000
  O   O3        1.0  0.8988203314197593  0.71387884980636  0.6162303057183175  1.0000
  O   O4        1.0  0.10117966827501343  0.21387885045267485  0.8837696936637743  1.0000
  O   O5        1.0  0.2790696327855005  0.5102189162162948  0.4305288331565522  1.0000
  O   O6        1.0  0.7209303667640381  0.010218916862609626  0.06947116724331456  1.0000
  O   O7        1.0  0.7209303668428027  0.4897810839359394  0.5694711671097185  1.0000
  O   O8        1.0  0.2790696328642651  0.9897810832896244  0.9305288330229561  1.0000
  O   O9        1.0  0.32283214751558215  0.996991572478909  0.40224900489799914  1.0000
  O   O10       1.0  0.677167853153218  0.49699157168036  0.09775099480302733  1.0000
  O   O11       1.0  0.6771678532319826  0.0030084276733250877  0.5977509946694312  1.0000
  O   O12       1.0  0.3228321475943467  0.5030084284718741  0.902249004764403  1.0000
  O   O13       1.0  0.39455038398563635  0.3130934720186919  0.23469393885128495  1.0000
  O   O14       1.0  0.6054496166954589  0.813093471372377  0.2653060616003242  1.0000
  O   O15       1.0  0.6054496167742235  0.6869065281335421  0.7653060614667281  1.0000
  O   O16       1.0  0.39455038406440096  0.18690652877985706  0.7346939387176888  1.0000
  O   O17       1.0  0.6479986208256586  0.3363441566417249  0.267168646486088  1.0000
  O   O18       1.0  0.3520013798431416  0.83634415599541  0.23283135321493842  1.0000
  O   O19       1.0  0.3520013799219062  0.6636558435105092  0.7328313530813423  1.0000
  O   O20       1.0  0.6479986209167182  0.16365584415682408  0.7671686471030746  1.0000
  O   O21       1.0  0.09443141074167216  0.782930266059665  0.4226076723719491  1.0000
  O   O22       1.0  0.9055685899394231  0.2829302667059799  0.07739232807966011  1.0000
  O   O23       1.0  0.9055685900181877  0.2170697326477052  0.577392327946064  1.0000
  O   O24       1.0  0.09443141082043674  0.7170697334462542  0.9226076722383529  1.0000
