data_image0
_chemical_formula_structural       H60C78O2S10
_chemical_formula_sum              "H60 C78 O2 S10"
_cell_length_a       11.809342117464741
_cell_length_b       12.480965802673293
_cell_length_c       14.099342638815676
_cell_angle_alpha    63.78729942241942
_cell_angle_beta     65.25036584349343
_cell_angle_gamma    63.069447910997674

_space_group_name_H-M_alt    "P 1"
_space_group_IT_number       1

loop_
  _space_group_symop_operation_xyz
  'x, y, z'

loop_
  _atom_site_type_symbol
  _atom_site_label
  _atom_site_symmetry_multiplicity
  _atom_site_fract_x
  _atom_site_fract_y
  _atom_site_fract_z
  _atom_site_occupancy
  H   H1        1.0  0.19057399521278853  0.44800197009282616  0.495835767798218  1.0000
  H   H2        1.0  0.8094260049878901  0.551998029272167  0.5041642325693975  1.0000
  H   H3        1.0  0.3702271801325014  0.45800945514926644  0.533693158329167  1.0000
  H   H4        1.0  0.6297728200681773  0.5419905442157267  0.4663068420384485  1.0000
  H   H5        1.0  0.5631310772682082  0.2623461440189734  0.5747622540673726  1.0000
  H   H6        1.0  0.4368689229324705  0.7376538553460197  0.4252377463002428  1.0000
  H   H7        1.0  0.5680347371481435  0.05853798114698554  0.5797629973919187  1.0000
  H   H8        1.0  0.4319652627280937  0.9414620191636887  0.42023700271864534  1.0000
  H   H9        1.0  0.37991407292105617  0.04675077262365173  0.5527983237178367  1.0000
  H   H10       1.0  0.620085926955181  0.9532492276870225  0.4472016763927274  1.0000
  H   H11       1.0  0.36544836992937757  0.25264552639596266  0.32338198399876245  1.0000
  H   H12       1.0  0.6345516299468595  0.7473544739147115  0.6766180161118018  1.0000
  H   H13       1.0  0.3706391286599246  0.3642923635653111  0.12858318634773447  1.0000
  H   H14       1.0  0.6293608715407542  0.6357076357996821  0.8714168140198809  1.0000
  H   H15       1.0  0.16138452039274553  0.5066905363388174  0.07500804059955418  1.0000
  H   H16       1.0  0.838615479483486  0.4933094639704521  0.9249919588023089  1.0000
  H   H17       1.0  0.9462827376633632  0.5265616184001183  0.22073199796026713  1.0000
  H   H18       1.0  0.05371726253731532  0.47343838096487484  0.7792680024073482  1.0000
  H   H19       1.0  0.9407833273677229  0.40642077050265185  0.41481478538036803  1.0000
  H   H20       1.0  0.059216672508514395  0.5935792298080222  0.585185214730196  1.0000
  H   H21       1.0  0.1595594332163856  0.1311897436704798  0.3727729067866421  1.0000
  H   H22       1.0  0.8404405666598516  0.8688102566401944  0.6272270933239221  1.0000
  H   H23       1.0  0.16479350734472745  0.9148114996083607  0.4208784632551616  1.0000
  H   H24       1.0  0.8352064925315043  0.08518850070090872  0.5791215361467017  1.0000
  H   H25       1.0  0.15610604610810627  0.7689693147390388  0.6115075589420462  1.0000
  H   H26       1.0  0.8438939540925723  0.2310306846259544  0.3884924414255692  1.0000
  H   H27       1.0  0.14207372228400036  0.8450419420339972  0.7551189191836243  1.0000
  H   H28       1.0  0.8579262775922368  0.15495805827667694  0.24488108092693986  1.0000
  H   H29       1.0  0.13923202605292959  0.06234836672166424  0.705804791052339  1.0000
  H   H30       1.0  0.8607679738233075  0.9376516335890102  0.29419520905822527  1.0000
  H   H31       1.0  0.6172445643537505  0.4420509119344383  0.9236944748196965  1.0000
  H   H32       1.0  0.3827554355224867  0.5579490883762359  0.07630552529086763  1.0000
  H   H33       1.0  0.6130461059563735  0.43452056539716194  0.10328192855039377  1.0000
  H   H34       1.0  0.38695389391986357  0.5654794349135123  0.8967180715601705  1.0000
  H   H35       1.0  0.6174563144493217  0.23628599833750802  0.26142765369012055  1.0000
  H   H36       1.0  0.3825436854269154  0.7637140019731662  0.7385723464204437  1.0000
  H   H37       1.0  0.6291591975115913  0.04549888363995798  0.23598752281764393  1.0000
  H   H38       1.0  0.37084080268908737  0.9545011157250353  0.7640124775499714  1.0000
  H   H39       1.0  0.6374788073682971  0.052330877416231665  0.055553053593476405  1.0000
  H   H40       1.0  0.36252119250793446  0.947669122893038  0.944446945808387  1.0000
  H   H41       1.0  0.38990683031992085  0.26248011845878205  0.9882688309082175  1.0000
  H   H42       1.0  0.6100931695563108  0.7375198818504876  0.011731168493645892  1.0000
  H   H43       1.0  0.1761806606368031  0.4072927644459126  0.9491078339943642  1.0000
  H   H44       1.0  0.8238193395638698  0.5927072349176761  0.050892165664550314  1.0000
  H   H45       1.0  0.16971287739312615  0.5848390976213401  0.7723544455836087  1.0000
  H   H46       1.0  0.830287122483111  0.41516090268933403  0.22764555452695556  1.0000
  H   H47       1.0  0.3808843169689931  0.6100303270411025  0.6339868172723471  1.0000
  H   H48       1.0  0.6191156832316855  0.3899696723238908  0.3660131830952682  1.0000
  H   H49       1.0  0.5943707457246807  0.4627642334761926  0.6726346287119577  1.0000
  H   H50       1.0  0.40562925415155654  0.5372357668344815  0.32736537139860666  1.0000
  H   H51       1.0  0.5050314339718899  0.185660488432383  0.7899267282242408  1.0000
  H   H52       1.0  0.4949685659043474  0.814339511878291  0.21007327188632346  1.0000
  H   H53       1.0  0.5641921114894172  0.9775079862505421  0.7715639323159369  1.0000
  H   H54       1.0  0.4358078883868144  0.022492014058727288  0.22843606708592648  1.0000
  H   H55       1.0  0.7641433813769057  0.802009380573827  0.819717540065444  1.0000
  H   H56       1.0  0.23585661849932582  0.1979906197354426  0.18028245933641934  1.0000
  H   H57       1.0  0.9114411694093983  0.8405844896015616  0.8776360211811368  1.0000
  H   H58       1.0  0.0885588304668334  0.1594155107077078  0.12236397822072659  1.0000
  H   H59       1.0  0.855266184031665  0.04976383763681942  0.892415768707025  1.0000
  H   H60       1.0  0.14473381584456663  0.9502361626724501  0.10758423069483825  1.0000
  C   C1        1.0  0.1538109416311451  0.24490510129832574  0.5035719456739067  1.0000
  C   C2        1.0  0.8461890582450922  0.7550948990123485  0.4964280544366573  1.0000
  C   C3        1.0  0.27034672876225296  0.24580003372858544  0.5252300903673076  1.0000
  C   C4        1.0  0.7296532714384258  0.7541999656364077  0.47476991000030794  1.0000
  C   C5        1.0  0.27123092938438936  0.36137825162270737  0.5178751005655383  1.0000
  C   C6        1.0  0.7287690704918424  0.6386217486865622  0.4821248988363249  1.0000
  C   C7        1.0  0.374188516800686  0.3672063522963443  0.5376672301506157  1.0000
  C   C8        1.0  0.6258114833999927  0.6327936470686489  0.46233277021699976  1.0000
  C   C9        1.0  0.4813665149075834  0.2580673529067064  0.560765476066927  1.0000
  C   C10       1.0  0.5186334849686539  0.7419326474039677  0.4392345240436371  1.0000
  C   C11       1.0  0.4834952430489466  0.14354676594786803  0.5643871295066193  1.0000
  C   C12       1.0  0.5165047568272905  0.8564532343628063  0.4356128706039449  1.0000
  C   C13       1.0  0.3780368768188407  0.13696536293594827  0.5481665226624468  1.0000
  C   C14       1.0  0.621963123381838  0.863034636429045  0.4518334777051685  1.0000
  C   C15       1.0  0.1525399902482595  0.321316380797752  0.38373466628412967  1.0000
  C   C16       1.0  0.8474600096279779  0.6786836195129222  0.6162653338264344  1.0000
  C   C17       1.0  0.2728468339577825  0.3111244913504426  0.3013965528081123  1.0000
  C   C18       1.0  0.7271531659184489  0.688875508958827  0.6986034465937511  1.0000
  C   C19       1.0  0.2758395119099523  0.3753374207870188  0.19097666131894436  1.0000
  C   C20       1.0  0.7241604879662848  0.6246625795236553  0.8090233387916196  1.0000
  C   C21       1.0  0.15864565956210674  0.45343119896248163  0.16092598190323548  1.0000
  C   C22       1.0  0.8413543403141305  0.5465688013481925  0.8390740182073286  1.0000
  C   C23       1.0  0.03860374508308047  0.4640924032486229  0.242242594588883  1.0000
  C   C24       1.0  0.9613962551175981  0.5359075961163703  0.7577574057787325  1.0000
  C   C25       1.0  0.03552118265320409  0.3973178434254941  0.35256199436035623  1.0000
  C   C26       1.0  0.9644788172230332  0.6026821568851801  0.6474380057502077  1.0000
  C   C27       1.0  0.15160919770103637  0.1120718692228794  0.5348745235869744  1.0000
  C   C28       1.0  0.8483908021751952  0.8879281310863903  0.46512547581488894  1.0000
  C   C29       1.0  0.15709025279678093  0.0687562087354764  0.45646182507101524  1.0000
  C   C30       1.0  0.8429097474038921  0.9312437906281121  0.5435381745878993  1.0000
  C   C31       1.0  0.15963272170832027  0.9458148073934618  0.48401905410250445  1.0000
  C   C32       1.0  0.8403672781679169  0.05418519291721228  0.5159809460080597  1.0000
  C   C33       1.0  0.1549142512398837  0.8644265598505445  0.5909606652416263  1.0000
  C   C34       1.0  0.8450857489607949  0.13557343951444864  0.4090393351259893  1.0000
  C   C35       1.0  0.1470644912596938  0.9072197996302899  0.6707241422649948  1.0000
  C   C36       1.0  0.8529355086165377  0.09278020067897981  0.3292758571368685  1.0000
  C   C37       1.0  0.14584473609597332  0.02952753302202537  0.6430877895327477  1.0000
  C   C38       1.0  0.8541552637802639  0.9704724672886489  0.35691221057781636  1.0000
  C   C39       1.0  0.6370208687637534  0.25819650877062594  0.8610163141512734  1.0000
  C   C40       1.0  0.3629791311124838  0.7418034915400483  0.1389836859592905  1.0000
  C   C41       1.0  0.6298717742034612  0.2473002953350671  0.976112593024741  1.0000
  C   C42       1.0  0.3701282256727705  0.7526997049742026  0.023887406377122337  1.0000
  C   C43       1.0  0.62108725230291  0.35453823147687735  0.9920634934630859  1.0000
  C   C44       1.0  0.3789127478977631  0.6454617678867112  0.007936506195828705  1.0000
  C   C45       1.0  0.6182364611956305  0.3506040097965148  0.09330286115235319  1.0000
  C   C46       1.0  0.38176353868060675  0.6493959905141594  0.906697138958211  1.0000
  C   C47       1.0  0.6209231104623757  0.23930015854828093  0.18189371087570683  1.0000
  C   C48       1.0  0.37907688941386153  0.7606998417623934  0.8181062892348574  1.0000
  C   C49       1.0  0.6271054040910224  0.13294513639359373  0.16755874930135112  1.0000
  C   C50       1.0  0.37289459578520917  0.8670548639156758  0.8324412501005122  1.0000
  C   C51       1.0  0.6318664917284386  0.1365021635969395  0.0653847185455115  1.0000
  C   C52       1.0  0.3681335084722402  0.8634978357680537  0.9346152818221038  1.0000
  C   C53       1.0  0.5074896335403034  0.353008029892707  0.8331467662887301  1.0000
  C   C54       1.0  0.49251036666036957  0.6469919694708816  0.16685323337018457  1.0000
  C   C55       1.0  0.3882432679926901  0.338701211250187  0.9104588526126836  1.0000
  C   C56       1.0  0.6117567318835471  0.6612987890604872  0.08954114749788046  1.0000
  C   C57       1.0  0.267543180037935  0.4207555337379132  0.8882907087353281  1.0000
  C   C58       1.0  0.7324568201627437  0.57924446562708  0.11170929163228735  1.0000
  C   C59       1.0  0.2638857418165463  0.5194078287640748  0.789114002700038  1.0000
  C   C60       1.0  0.7361142580596854  0.4805921715451948  0.21088599670182537  1.0000
  C   C61       1.0  0.3819131148752192  0.5334750987616605  0.7116820338698252  1.0000
  C   C62       1.0  0.6180868853254593  0.46652490060333274  0.28831796649779007  1.0000
  C   C63       1.0  0.5028838622198951  0.45049876968240654  0.7334393445053192  1.0000
  C   C64       1.0  0.49711613765634205  0.5495012306282677  0.26656065560524506  1.0000
  C   C65       1.0  0.6731190838173566  0.13159454475504467  0.8464397165069465  1.0000
  C   C66       1.0  0.32688091605888053  0.8684054555556294  0.15356028360361762  1.0000
  C   C67       1.0  0.5935306761994107  0.11007611939262693  0.8103979184895082  1.0000
  C   C68       1.0  0.4064693236768209  0.8899238809166428  0.18960208091235511  1.0000
  C   C69       1.0  0.6268440912874724  0.9923054744632765  0.8002295983433488  1.0000
  C   C70       1.0  0.37315590858876474  0.0076945258473974315  0.19977040176721536  1.0000
  C   C71       1.0  0.7395418971177411  0.894203598723824  0.8262806143751452  1.0000
  C   C72       1.0  0.26045810275849607  0.10579640158685011  0.1737193857354191  1.0000
  C   C73       1.0  0.8214864324668397  0.915688666942775  0.8592820131194717  1.0000
  C   C74       1.0  0.17851356740939195  0.08431133336649452  0.14071798628239165  1.0000
  C   C75       1.0  0.7892813363759901  0.03330989006307375  0.8685239185604089  1.0000
  C   C76       1.0  0.21071866382468293  0.9666901093005147  0.13147608109850584  1.0000
  C   C77       1.0  0.08597868931915842  0.18759553243990254  0.897870948723543  1.0000
  C   C78       1.0  0.9140213105570788  0.8124044678707717  0.10212905138702122  1.0000
  O   O1        1.0  0.7775649483849701  0.32284700006843886  0.5605301846496553  1.0000
  O   O2        1.0  0.22243505149126153  0.6771530002408307  0.43946981475220803  1.0000
  S   S1        1.0  0.008424158194310062  0.33019207095580566  0.5993065602031257  1.0000
  S   S2        1.0  0.9915758416819271  0.6698079293548685  0.4006934399074384  1.0000
  S   S3        1.0  0.859701515767919  0.2523544246927652  0.6391514328479077  1.0000
  S   S4        1.0  0.14029848410831822  0.7476455756179089  0.3608485672626565  1.0000
  S   S5        1.0  0.7793050984054724  0.3213778254058956  0.7755567048763837  1.0000
  S   S6        1.0  0.22069490147076484  0.6786221749047786  0.22444329523418038  1.0000
  S   S7        1.0  0.21670589254289938  0.20593274733914252  0.8116674206600344  1.0000
  S   S8        1.0  0.7832941073333378  0.7940672529715318  0.1883325794505297  1.0000
  S   S9        1.0  0.9536931999951129  0.17133520180516185  0.9826156921681066  1.0000
  S   S10       1.0  0.04630679988112442  0.8286647985055122  0.017384307942457454  1.0000
