data_image0
_chemical_formula_structural       H20C44N8F8I4
_chemical_formula_sum              "H20 C44 N8 F8 I4"
_cell_length_a       7.1734189421630985
_cell_length_b       11.922967478534138
_cell_length_c       13.345542497321452
_cell_angle_alpha    68.42726694136404
_cell_angle_beta     83.7056501170427
_cell_angle_gamma    84.67961222997067

_space_group_name_H-M_alt    "P 1"
_space_group_IT_number       1

loop_
  _space_group_symop_operation_xyz
  'x, y, z'

loop_
  _atom_site_type_symbol
  _atom_site_label
  _atom_site_symmetry_multiplicity
  _atom_site_fract_x
  _atom_site_fract_y
  _atom_site_fract_z
  _atom_site_occupancy
  H   H1        1.0  0.5139583384345842  0.6879014328099753  0.3581656931053184  1.0000
  H   H2        1.0  0.48604166147400063  0.31209856727283697  0.6418343071706296  1.0000
  H   H3        1.0  0.5917088688954802  0.84988704361781  0.42242175396260595  1.0000
  H   H4        1.0  0.40829113111684145  0.15011295678852407  0.5775782455049222  1.0000
  H   H5        1.0  0.6624717426410757  0.903774287169812  0.583882348139926  1.0000
  H   H6        1.0  0.3375282573712461  0.09622571323652192  0.41611765132760203  1.0000
  H   H7        1.0  0.7075946727347668  0.8300824250986443  0.781338800278008  1.0000
  H   H8        1.0  0.2924053271738179  0.16991757498416782  0.21866119999794015  1.0000
  H   H9        1.0  0.667414948519126  0.6118159371888995  0.8933560871781678  1.0000
  H   H10       1.0  0.33258505149319567  0.3881840632174345  0.10664391228936033  1.0000
  H   H11       1.0  0.9637714594085205  0.642227122714852  0.3260121746913643  1.0000
  H   H12       1.0  0.03622854061776696  0.35777287652454476  0.6739878255873177  1.0000
  H   H13       1.0  0.8798898897055774  0.5445831103473836  0.20061983943084946  1.0000
  H   H14       1.0  0.1201101102030074  0.45541688973542843  0.7993801608450986  1.0000
  H   H15       1.0  0.8168170432402253  0.348943646937272  0.1761223752810474  1.0000
  H   H16       1.0  0.1831829566683595  0.6510563531455402  0.8238776249949006  1.0000
  H   H17       1.0  0.7976595763933939  0.12336652568190042  0.2618960702945561  1.0000
  H   H18       1.0  0.20234042361892773  0.8766334747244335  0.7381039291729721  1.0000
  H   H19       1.0  0.8572566169016735  0.021254111918073682  0.4556818582673549  1.0000
  H   H20       1.0  0.14274338311064802  0.9787458884882604  0.5443181412001732  1.0000
  C   C1        1.0  0.7100816979517576  0.12064463317989262  0.9439636403801472  1.0000
  C   C2        1.0  0.2899183019568272  0.8793553669029196  0.056036359895800775  1.0000
  C   C3        1.0  0.7926293814590523  0.04434632464359921  0.8899558018869791  1.0000
  C   C4        1.0  0.20737061844953247  0.955653675439213  0.1100441983889689  1.0000
  C   C5        1.0  0.8347969225296474  0.9231051134480652  0.9504858651549858  1.0000
  C   C6        1.0  0.1652030773789374  0.07689488663474696  0.04951413512096225  1.0000
  C   C7        1.0  0.7937407179548466  0.8749592180198493  0.06207436444443372  1.0000
  C   C8        1.0  0.20625928195373822  0.1250407820629627  0.9379256358315143  1.0000
  C   C9        1.0  0.7075825584446077  0.949535162531368  0.1149998198981156  1.0000
  C   C10       1.0  0.292417441463977  0.050464837551444125  0.8850001803778323  1.0000
  C   C11       1.0  0.6691007142638042  0.0711893815920363  0.05552068797134319  1.0000
  C   C12       1.0  0.33089928564478066  0.9288106184907758  0.9444793123046048  1.0000
  C   C13       1.0  0.522586708762754  0.5487039196939126  0.5178870562606677  1.0000
  C   C14       1.0  0.4774132911458307  0.4512960803888994  0.4821129440152803  1.0000
  C   C15       1.0  0.5373400487011122  0.6687631070430657  0.442146519464441  1.0000
  C   C16       1.0  0.46265995120747255  0.33123689303974646  0.557853480811507  1.0000
  C   C17       1.0  0.5791128165685528  0.7568437222439087  0.4781214643437814  1.0000
  C   C18       1.0  0.4208871834437689  0.24315627816242516  0.5218785351237467  1.0000
  C   C19       1.0  0.6057478771821778  0.7261667181794407  0.5888549577925185  1.0000
  C   C20       1.0  0.39425212272640703  0.2738332819033714  0.41114504248342953  1.0000
  C   C21       1.0  0.5878894280064687  0.6027149015812521  0.6586415650982138  1.0000
  C   C22       1.0  0.41211057200585305  0.39728509882508184  0.3413584343693143  1.0000
  C   C23       1.0  0.6487620756630189  0.8090047050444661  0.6349336026200707  1.0000
  C   C24       1.0  0.35123792434930273  0.19099529536186785  0.3650663968474575  1.0000
  C   C25       1.0  0.6727713912267218  0.7687368509157454  0.7437528290004041  1.0000
  C   C26       1.0  0.32722860868186304  0.23126314916706686  0.2562471712755439  1.0000
  C   C27       1.0  0.650957208344977  0.6453141421760734  0.8065787780965037  1.0000
  C   C28       1.0  0.3490427929595691  0.35468585790226564  0.1934212221729167  1.0000
  C   C29       1.0  0.9759014625703256  0.4721788188483561  0.4620665766332434  1.0000
  C   C30       1.0  0.024098537441996082  0.5278211815579779  0.5379334228342848  1.0000
  C   C31       1.0  0.947992987701436  0.5455292662539248  0.3529113674949135  1.0000
  C   C32       1.0  0.052007012207148755  0.4544707338288872  0.6470886327810345  1.0000
  C   C33       1.0  0.9030382772192199  0.49146087534027877  0.28470079110898455  1.0000
  C   C34       1.0  0.09696172280706741  0.5085391238991182  0.7152992091696976  1.0000
  C   C35       1.0  0.8864809821745149  0.36484948222280766  0.3242749698023544  1.0000
  C   C36       1.0  0.11351901785177256  0.6351505170165891  0.6757250304763277  1.0000
  C   C37       1.0  0.917138863457187  0.2987305840497625  0.4355163391395979  1.0000
  C   C38       1.0  0.08286113655513479  0.7012694163565715  0.5644836603279302  1.0000
  C   C39       1.0  0.8416663416774746  0.3002616339063325  0.2608914182171514  1.0000
  C   C40       1.0  0.15833365823111017  0.6997383661764797  0.7391085820587966  1.0000
  C   C41       1.0  0.8299821296831735  0.17683479448636305  0.30785320708966263  1.0000
  C   C42       1.0  0.1700178702254113  0.8231652055964491  0.6921467931862854  1.0000
  C   C43       1.0  0.8627429619967771  0.11937524694855552  0.41813460247694045  1.0000
  C   C44       1.0  0.13725703791180774  0.8806247531342566  0.5818653977990076  1.0000
  N   N1        1.0  0.547197432796204  0.516824725524411  0.6221836070852832  1.0000
  N   N2        1.0  0.45280256711238076  0.48317527455840104  0.3778163931906648  1.0000
  N   N3        1.0  0.6101250195623188  0.5648190011700827  0.7666139723125596  1.0000
  N   N4        1.0  0.38987498046396857  0.43518099806931426  0.23338602796612246  1.0000
  N   N5        1.0  0.960816658967445  0.35316133383208037  0.5019460844691377  1.0000
  N   N6        1.0  0.03918334116257949  0.6468386657308381  0.4980539150011246  1.0000
  N   N7        1.0  0.9040652054622387  0.17640035079844416  0.48074434685533385  1.0000
  N   N8        1.0  0.09593479444634619  0.823599649284368  0.5192556534206142  1.0000
  F   F1        1.0  0.9193170697531794  0.8464213739531169  0.9027050295895851  1.0000
  F   F2        1.0  0.08068293015540545  0.15357862612969536  0.09729497068636299  1.0000
  F   F3        1.0  0.838395570703938  0.7579153273793672  0.1186921411481795  1.0000
  F   F4        1.0  0.16160442920464674  0.24208467270344494  0.8813078591277684  1.0000
  F   F5        1.0  0.6625628002313626  0.9041488035620915  0.22270944592482267  1.0000
  F   F6        1.0  0.3374371996772221  0.09585119652072066  0.7772905543511253  1.0000
  F   F7        1.0  0.5896470845059871  0.14105431530501272  0.11132231556275302  1.0000
  F   F8        1.0  0.4103529155203004  0.858945683934384  0.8886776847159291  1.0000
  I   I1        1.0  0.6497147665164057  0.30905221452134624  0.8660562696240329  1.0000
  I   I2        1.0  0.35028523349591606  0.6909477858849878  0.13394372984349512  1.0000
  I   I3        1.0  0.8554877912337824  0.10504158771040306  0.7200020899509612  1.0000
  I   I4        1.0  0.1445122087785394  0.8949584126959309  0.2799979095165669  1.0000
