data_image0
_chemical_formula_structural       H40C48O4Cl24
_chemical_formula_sum              "H40 C48 O4 Cl24"
_cell_length_a       9.976520518980905
_cell_length_b       12.65093871647497
_cell_length_c       13.138771721910896
_cell_angle_alpha    117.52514080711377
_cell_angle_beta     94.85851331029538
_cell_angle_gamma    92.96078954042687

_space_group_name_H-M_alt    "P 1"
_space_group_IT_number       1

loop_
  _space_group_symop_operation_xyz
  'x, y, z'

loop_
  _atom_site_type_symbol
  _atom_site_label
  _atom_site_symmetry_multiplicity
  _atom_site_fract_x
  _atom_site_fract_y
  _atom_site_fract_z
  _atom_site_occupancy
  H   H1        1.0  0.32524121096005437  0.8119388305280987  0.9695529952074212  1.0000
  H   H2        1.0  0.6747587887810002  0.18806116926923921  0.03044700456034142  1.0000
  H   H3        1.0  0.4874263180740377  0.7920347883195926  0.9271713229128282  1.0000
  H   H4        1.0  0.5125736816670168  0.20796521147774533  0.07282867685493444  1.0000
  H   H5        1.0  0.5411424838821228  0.7285223999619097  0.1284326015973374  1.0000
  H   H6        1.0  0.45885751686086107  0.2714775998322175  0.8715673981685667  1.0000
  H   H7        1.0  0.39665635706120317  0.8057284094317373  0.14265471691453221  1.0000
  H   H8        1.0  0.6033436428058102  0.19427159078325298  0.8573452837180001  1.0000
  H   H9        1.0  0.4195600228752877  0.5586554837645022  0.1330112046710667  1.0000
  H   H10       1.0  0.5804399768657669  0.44134451603283575  0.8669887950966961  1.0000
  H   H11       1.0  0.17027595503784854  0.5136515871440249  0.09124810740817157  1.0000
  H   H12       1.0  0.8297240458310942  0.48634841306775467  0.9087518932225022  1.0000
  H   H13       1.0  0.17227727516627678  0.7539913951565944  0.08126583195616117  1.0000
  H   H14       1.0  0.8277227247007366  0.24600860505839597  0.9187341686763713  1.0000
  H   H15       1.0  0.025719788470259367  0.6721863781920269  0.08206471007692356  1.0000
  H   H16       1.0  0.9742802113259502  0.3278136223981138  0.9179352896935113  1.0000
  H   H17       1.0  0.9818182331065243  0.6318472361012621  0.8124180984075946  1.0000
  H   H18       1.0  0.018181766634530215  0.36815276369607575  0.18758190136016814  1.0000
  H   H19       1.0  0.09650426846341749  0.7528397870916971  0.9145571814230953  1.0000
  H   H20       1.0  0.9034957322795663  0.24716021270243005  0.08544281834280874  1.0000
  H   H21       1.0  0.46076961362377555  0.10804873297917456  0.4052791333014414  1.0000
  H   H22       1.0  0.5392303861724342  0.8919512676109661  0.5947208664689935  1.0000
  H   H23       1.0  0.45869228988831307  0.257953858845467  0.4336415445107895  1.0000
  H   H24       1.0  0.5413077108546708  0.7420461409486602  0.5663584552551145  1.0000
  H   H25       1.0  0.4504815817644374  0.20897229672124004  0.6232999837459219  1.0000
  H   H26       1.0  0.549518417976617  0.7910277030760979  0.37670001602184083  1.0000
  H   H27       1.0  0.40629913851406985  0.34582722130574717  0.6334751024145193  1.0000
  H   H28       1.0  0.5937008612269846  0.6541727784915907  0.36652489735324345  1.0000
  H   H29       1.0  0.2991574383895888  0.35519508215388146  0.7892817904155269  1.0000
  H   H30       1.0  0.7008425613514657  0.6448049176434565  0.21071820935223584  1.0000
  H   H31       1.0  0.058889673771762865  0.28472722613276147  0.735595269228914  1.0000
  H   H32       1.0  0.9411103259692919  0.7152727736645765  0.2644047305388487  1.0000
  H   H33       1.0  0.004371965700062587  0.08774418989077869  0.5240485761242446  1.0000
  H   H34       1.0  0.99562803516888  0.912255810321001  0.47595142450642924  1.0000
  H   H35       1.0  0.9902533347328076  0.2316762188472621  0.5414353135998509  1.0000
  H   H36       1.0  0.009746665134205744  0.7683237813677283  0.4585646870326816  1.0000
  H   H37       1.0  0.001919241461626184  0.13148701372666016  0.3340806513117354  1.0000
  H   H38       1.0  0.9980807592813575  0.868512986067467  0.6659193484541687  1.0000
  H   H39       1.0  0.06452525539093597  0.9984110241810389  0.3175628843212088  1.0000
  H   H40       1.0  0.9354747443501186  0.001588975616298985  0.6824371154465539  1.0000
  C   C1        1.0  0.23168386007006078  0.7355031059313865  0.7423441229274179  1.0000
  C   C2        1.0  0.7683161396709937  0.26449689386595143  0.25765587684034486  1.0000
  C   C3        1.0  0.1779734475407028  0.6307158398157483  0.7617208933696683  1.0000
  C   C4        1.0  0.8220265532574361  0.3692841607711816  0.2382791063989079  1.0000
  C   C5        1.0  0.3299259836683496  0.6774556448634262  0.792161355554348  1.0000
  C   C6        1.0  0.6700740161986638  0.32254435535156417  0.20783864507818456  1.0000
  C   C7        1.0  0.38887553614114917  0.7427791394105412  0.9181749486658238  1.0000
  C   C8        1.0  0.6111244646018347  0.2572208603835859  0.08182505110008029  1.0000
  C   C9        1.0  0.4095733388495607  0.6596864816504995  0.9714003822951129  1.0000
  C   C10       1.0  0.5904266618934232  0.34031351814362765  0.028599617470791063  1.0000
  C   C11       1.0  0.43118737290858267  0.7158919945973533  0.10259149313451414  1.0000
  C   C12       1.0  0.5688126268324718  0.2841080051999845  0.8974085066332486  1.0000
  C   C13       1.0  0.36289552459996843  0.6328550617401976  0.14081982947650307  1.0000
  C   C14       1.0  0.6371044761430154  0.3671449380539295  0.8591801702894009  1.0000
  C   C15       1.0  0.2092218966329961  0.6050723696133222  0.11506366307156783  1.0000
  C   C16       1.0  0.7907781031080583  0.39492763018401583  0.8849363366961949  1.0000
  C   C17       1.0  0.12872212358029936  0.6627001559038376  0.05569021810539884  1.0000
  C   C18       1.0  0.871277876286714  0.3372998443111528  0.9443097825271336  1.0000
  C   C19       1.0  0.10585626872441777  0.5877440067259455  0.9250200743285666  1.0000
  C   C20       1.0  0.8941437310717918  0.4122559938641952  0.07497992544186836  1.0000
  C   C21       1.0  0.08645625110449995  0.6564064535726045  0.8557334543700186  1.0000
  C   C22       1.0  0.9135437487625134  0.34359354664238584  0.1442665462625139  1.0000
  C   C23       1.0  0.27552669649767364  0.6762425411545256  0.23741745759444371  1.0000
  C   C24       1.0  0.7244733032433809  0.32375745864281225  0.762582542173319  1.0000
  C   C25       1.0  0.23602706958487352  0.20658829327376266  0.25213101314852376  1.0000
  C   C26       1.0  0.7639729301561811  0.7934117065235752  0.747868986619239  1.0000
  C   C27       1.0  0.17996308045368714  0.0903740972947193  0.24927695816928083  1.0000
  C   C28       1.0  0.8200369192873674  0.9096259025026187  0.7507230415984819  1.0000
  C   C29       1.0  0.3312171434789049  0.13137802390191444  0.2821206902125935  1.0000
  C   C30       1.0  0.6687828562621496  0.8686219758954234  0.7178793095551692  1.0000
  C   C31       1.0  0.3927189116112152  0.1742539645936481  0.40593757163072836  1.0000
  C   C32       1.0  0.6072810881298393  0.8257460352036897  0.5940624281370344  1.0000
  C   C33       1.0  0.29563612032039616  0.19227148848090891  0.49282901887765074  1.0000
  C   C34       1.0  0.7043638804225876  0.8077285113132182  0.5071709808882533  1.0000
  C   C35       1.0  0.3630158804308175  0.25616719187700915  0.6156585795684487  1.0000
  C   C36       1.0  0.6369841194361957  0.7438328083379813  0.3843414210640837  1.0000
  C   C37       1.0  0.27398050488755726  0.27269490087085063  0.7081160210398645  1.0000
  C   C38       1.0  0.7260194958554265  0.7273050989232764  0.2918839787260395  1.0000
  C   C39       1.0  0.12409725830248057  0.2290081575383969  0.6741494450447898  1.0000
  C   C40       1.0  0.8759027416196878  0.7709918434693961  0.32585055559041476  1.0000
  C   C41       1.0  0.0648458783450963  0.1735663238978311  0.5492846551152937  1.0000
  C   C42       1.0  0.9351541225238464  0.8264336763139485  0.4507153455153801  1.0000
  C   C43       1.0  0.16323966243699928  0.15525173138066053  0.4634407249423638  1.0000
  C   C44       1.0  0.8367603373040552  0.8447482684166774  0.5365592748253989  1.0000
  C   C45       1.0  0.09629146687131859  0.09231588483462634  0.3407784239447918  1.0000
  C   C46       1.0  0.9037085339976239  0.9076841153771531  0.6592215766858819  1.0000
  C   C47       1.0  0.21703507823492332  0.1668859840055835  0.7196092884112083  1.0000
  C   C48       1.0  0.7829649215061313  0.8331140157917543  0.28039071135655447  1.0000
  O   O1        1.0  0.40586034447362235  0.5509678765595949  0.9113795580617396  1.0000
  O   O2        1.0  0.5941396552674322  0.449032123237743  0.0886204417060231  1.0000
  O   O3        1.0  0.09438453834760162  0.47820368124769547  0.8783030440411652  1.0000
  O   O4        1.0  0.9056154613934528  0.5217963185496425  0.12169695572659742  1.0000
  Cl  Cl1       1.0  0.236944134443543  0.7123220972717309  0.6013951593388571  1.0000
  Cl  Cl2       1.0  0.7630558652975115  0.287677902525607  0.39860484042890565  1.0000
  Cl  Cl3       1.0  0.19371231242378262  0.8814297674342197  0.833075385539181  1.0000
  Cl  Cl4       1.0  0.8062876873172719  0.1185702323631183  0.16692461422858168  1.0000
  Cl  Cl5       1.0  0.12871233429974735  0.4932829929843226  0.6388428475994454  1.0000
  Cl  Cl6       1.0  0.871287665567266  0.5067170072306678  0.361157153033087  1.0000
  Cl  Cl7       1.0  0.4454876543503997  0.5930917454390751  0.7016004290643255  1.0000
  Cl  Cl8       1.0  0.5545123455166135  0.4069082547759154  0.29839957156820696  1.0000
  Cl  Cl9       1.0  0.27626739898115305  0.6032391176536367  0.3239417686906538  1.0000
  Cl  Cl10      1.0  0.7237326007599015  0.39676088214370125  0.676058231077109  1.0000
  Cl  Cl11      1.0  0.2576916214568241  0.8301842441031635  0.31882243789481385  1.0000
  Cl  Cl12      1.0  0.7423083782842305  0.16981575569417437  0.6811775618729489  1.0000
  Cl  Cl13      1.0  0.2419081504209978  0.21128876460179502  0.12146428953465249  1.0000
  Cl  Cl14      1.0  0.7580918503771412  0.7887112359851348  0.8785357102339237  1.0000
  Cl  Cl15      1.0  0.19876677145254043  0.34407752024440535  0.3612389537353445  1.0000
  Cl  Cl16      1.0  0.8012332282885141  0.6559224795529326  0.6387610460324183  1.0000
  Cl  Cl17      1.0  0.12139795608048345  0.9716050483049925  0.11192171549108823  1.0000
  Cl  Cl18      1.0  0.8786020436605709  0.028394951492345232  0.8880782842766745  1.0000
  Cl  Cl19      1.0  0.4442834418293431  0.056275553709297745  0.18266641140559137  1.0000
  Cl  Cl20      1.0  0.5557165579117115  0.9437244460880402  0.8173335883621714  1.0000
  Cl  Cl21      1.0  0.2589741121196076  0.022330694314708754  0.6295164108853581  1.0000
  Cl  Cl22      1.0  0.7410258886233761  0.9776693054794183  0.3704835888805459  1.0000
  Cl  Cl23      1.0  0.2012196585365131  0.18752247025734406  0.8611627422203906  1.0000
  Cl  Cl24      1.0  0.7987803423324293  0.8124775299544353  0.1388372584102831  1.0000
