data_image0
_chemical_formula_structural       H38C24N6I6
_chemical_formula_sum              "H38 C24 N6 I6"
_cell_length_a       8.148640330870325
_cell_length_b       8.112057928830009
_cell_length_c       13.670561445317107
_cell_angle_alpha    85.15146651403755
_cell_angle_beta     73.66516832258223
_cell_angle_gamma    89.37628484176285

_space_group_name_H-M_alt    "P 1"
_space_group_IT_number       1

loop_
  _space_group_symop_operation_xyz
  'x, y, z'

loop_
  _atom_site_type_symbol
  _atom_site_label
  _atom_site_symmetry_multiplicity
  _atom_site_fract_x
  _atom_site_fract_y
  _atom_site_fract_z
  _atom_site_occupancy
  H   H1        1.0  0.40700947735247245  0.7209992021159178  0.6783873719038686  1.0000
  H   H2        1.0  0.592990522668212  0.2790007975932192  0.32161262811307234  1.0000
  H   H3        1.0  0.3778246048915502  0.49322323652014116  0.9015668038289268  1.0000
  H   H4        1.0  0.6221753951291342  0.5067767631889959  0.09843319618801397  1.0000
  H   H5        1.0  0.5899245383706265  0.5725806106052297  0.8600079282842018  1.0000
  H   H6        1.0  0.41007546165005776  0.42741938910390737  0.1399920717327392  1.0000
  H   H7        1.0  0.49093910436543836  0.5071608365116091  0.7689634675708563  1.0000
  H   H8        1.0  0.5090608956552458  0.49283916319752774  0.23103653244608466  1.0000
  H   H9        1.0  0.3443967495136984  0.8810242768188465  0.06559766035399955  1.0000
  H   H10       1.0  0.6556032505069858  0.11897572289029053  0.9344023396629414  1.0000
  H   H11       1.0  0.3260104148130192  0.6694634359372859  0.04245983573891862  1.0000
  H   H12       1.0  0.6739895852076652  0.33053656377185126  0.9575401642780224  1.0000
  H   H13       1.0  0.5293643647038286  0.770223826230531  0.0030416314304398833  1.0000
  H   H14       1.0  0.4706356353168556  0.22977617347860607  0.996958368586501  1.0000
  H   H15       1.0  0.0878836130761534  0.21332834191706593  0.7722094745203195  1.0000
  H   H16       1.0  0.9121163869445308  0.7866716577920712  0.22779052549662132  1.0000
  H   H17       1.0  0.1721639105027511  0.2705666613621733  0.8720008812177089  1.0000
  H   H18       1.0  0.8278360895179331  0.7294333383469638  0.12799911879923206  1.0000
  H   H19       1.0  0.29772302615194407  0.2983297969616997  0.7410520889817601  1.0000
  H   H20       1.0  0.7022769738687401  0.7016702027474373  0.2589479110351809  1.0000
  H   H21       1.0  0.3300993871899608  0.9099261922410837  0.5688676879388966  1.0000
  H   H22       1.0  0.6699006128307234  0.09007380746805328  0.43113231207804426  1.0000
  H   H23       1.0  0.17032382847524657  0.05031763948247054  0.6260969180940512  1.0000
  H   H24       1.0  0.8296761715454378  0.9496823602266663  0.37390308192288974  1.0000
  H   H25       1.0  0.38899494491849496  0.11205007434695591  0.5896617538619232  1.0000
  H   H26       1.0  0.6110050551021893  0.8879499253621811  0.4103382461550176  1.0000
  H   H27       1.0  0.788276871125131  0.5979248669176193  0.6225234749814694  1.0000
  H   H28       1.0  0.21172312889555314  0.4020751327915177  0.3774765250354715  1.0000
  H   H29       1.0  0.6996327512230245  0.7904540786837615  0.594315156005285  1.0000
  H   H30       1.0  0.30036724915300983  0.2095459211312267  0.4056848432466314  1.0000
  H   H31       1.0  0.8683515229325314  0.7055709974528968  0.5002968361148825  1.0000
  H   H32       1.0  0.13164847706967317  0.29442900348896495  0.49970316390257674  1.0000
  H   H33       1.0  0.10189320395427227  0.6527891563310407  0.5725085544127126  1.0000
  H   H34       1.0  0.8981067960664121  0.3472108433780963  0.4274914456042283  1.0000
  H   H35       1.0  0.06802338233052253  0.44195165113195245  0.619654815450262  1.0000
  H   H36       1.0  0.9319766176716818  0.5580483498099092  0.3803451845671973  1.0000
  H   H37       1.0  0.14301622060666616  0.5839192197773924  0.689850051070902  1.0000
  H   H38       1.0  0.8569837794140182  0.4160807799317447  0.31014994894603903  1.0000
  C   C1        1.0  0.40198166824376613  0.7387716350320332  0.8304679379987444  1.0000
  C   C2        1.0  0.5980183317769182  0.26122836467710375  0.16953206201819643  1.0000
  C   C3        1.0  0.36293037668710215  0.8434831884097937  0.9108479885593883  1.0000
  C   C4        1.0  0.637069623333582  0.1565168112993433  0.08915201145755254  1.0000
  C   C5        1.0  0.27467833390135993  0.04893937206661538  0.8084590719195177  1.0000
  C   C6        1.0  0.7253216661193244  0.9510606276425215  0.1915409280974232  1.0000
  C   C7        1.0  0.3156202226516682  0.9508151610789072  0.7252482095308133  1.0000
  C   C8        1.0  0.6843797773505361  0.04918483986295453  0.27475179048664616  1.0000
  C   C9        1.0  0.4687266322775664  0.5687406888521317  0.8396972220854896  1.0000
  C   C10       1.0  0.531273367743118  0.4312593108570052  0.16030277793145148  1.0000
  C   C11       1.0  0.3920657702671339  0.7880868415959232  0.011312590280992607  1.0000
  C   C12       1.0  0.6079342297535505  0.21191315811321382  0.9886874097359484  1.0000
  C   C13       1.0  0.20385920254925535  0.21754528406141166  0.7980888573521562  1.0000
  C   C14       1.0  0.796140797471429  0.7824547156477253  0.2019111426647847  1.0000
  C   C15       1.0  0.30028535003305207  0.007280718709987865  0.6217962674362071  1.0000
  C   C16       1.0  0.6997146499876322  0.9927192809991493  0.3782037325807338  1.0000
  C   C17       1.0  0.6225291833424728  0.5840397074865954  0.5272736066279075  1.0000
  C   C18       1.0  0.37747081667821164  0.4159602922225416  0.47272639338903344  1.0000
  C   C19       1.0  0.3328587654896751  0.5189238437500521  0.5541428698083168  1.0000
  C   C20       1.0  0.6671412345310092  0.48107615595908493  0.44585713020862405  1.0000
  C   C21       1.0  0.7513934382427279  0.6751537122413178  0.5621992536170866  1.0000
  C   C22       1.0  0.24860656177795662  0.3248462874678193  0.4378007463998542  1.0000
  C   C23       1.0  0.15211546999483133  0.5496011787600562  0.6126556942110876  1.0000
  C   C24       1.0  0.8478845300258532  0.45039882094908096  0.3873443058058533  1.0000
  N   N1        1.0  0.3767780149022167  0.7987865397381505  0.7409876989901908  1.0000
  N   N2        1.0  0.6232219851184676  0.2012134599709865  0.2590123010267502  1.0000
  N   N3        1.0  0.29973838788217316  0.9946133660042343  0.898585294566977  1.0000
  N   N4        1.0  0.7002616121385111  0.00538663370490258  0.10141470544996403  1.0000
  N   N5        1.0  0.4569502998254192  0.599540448676571  0.5789178235767258  1.0000
  N   N6        1.0  0.543049700195265  0.40045955103256614  0.4210821764402152  1.0000
  I   I1        1.0  0.7543092151813662  0.17923366826714712  0.6527699791938016  1.0000
  I   I2        1.0  0.245690784839318  0.82076633144199  0.34723002082313925  1.0000
  I   I3        1.0  0.8438650487553642  0.8961852825945399  0.783254112373177  1.0000
  I   I4        1.0  0.15613495126532012  0.10381471711459708  0.2167458876437639  1.0000
  I   I5        1.0  0.9306582882665986  0.6220708879999363  0.9095804311832377  1.0000
  I   I6        1.0  0.06934171175408582  0.37792911170920085  0.0904195688337031  1.0000
