data_image0
_chemical_formula_structural       H96C112N32O24Cl12
_chemical_formula_sum              "H96 C112 N32 O24 Cl12"
_cell_length_a       9.744907797684364
_cell_length_b       24.667211175898057
_cell_length_c       12.595955871169926
_cell_angle_alpha    90.0
_cell_angle_beta     110.81137753732395
_cell_angle_gamma    90.0

_space_group_name_H-M_alt    "P 1"
_space_group_IT_number       1

loop_
  _space_group_symop_operation_xyz
  'x, y, z'

loop_
  _atom_site_type_symbol
  _atom_site_label
  _atom_site_symmetry_multiplicity
  _atom_site_fract_x
  _atom_site_fract_y
  _atom_site_fract_z
  _atom_site_occupancy
  H   H1        1.0  0.9550148494491015  0.08335031087782249  0.959703077593209  1.0000
  H   H2        1.0  0.5449851501033961  0.5833503105555717  0.5402969228661526  1.0000
  H   H3        1.0  0.04498514977989408  0.9166496892884689  0.040296922430726016  1.0000
  H   H4        1.0  0.455014850150671  0.4166496892053232  0.45970307715538455  1.0000
  H   H5        1.0  0.18826552953581419  0.12054311526328211  0.10354497002961191  1.0000
  H   H6        1.0  0.31173447078768785  0.6205431149410314  0.39645503040581465  1.0000
  H   H7        1.0  0.811734470718253  0.8794568849030093  0.8964550299919253  1.0000
  H   H8        1.0  0.6882655294663793  0.37945688481986356  0.6035449696157226  1.0000
  H   H9        1.0  0.3347324259164968  0.10613240269974246  0.3091641954074717  1.0000
  H   H10       1.0  0.1652675729889967  0.6061324027828882  0.19083580418103677  1.0000
  H   H11       1.0  0.6652675733124988  0.8938675970611525  0.6908358046164633  1.0000
  H   H12       1.0  0.8347324262399988  0.39386759738340327  0.8091641958428982  1.0000
  H   H13       1.0  0.23365405034849696  0.044341762925706116  0.4230258861858373  1.0000
  H   H14       1.0  0.2663459495820682  0.5443417626034553  0.0769741134002733  1.0000
  H   H15       1.0  0.7663459499055703  0.9556582372405853  0.5769741138356999  1.0000
  H   H16       1.0  0.733654050671999  0.4556582371574396  0.9230258866212638  1.0000
  H   H17       1.0  0.030689950706967076  0.9803018881042856  0.4225999848809248  1.0000
  H   H18       1.0  0.469310049616535  0.48030188842653637  0.07740001555450172  1.0000
  H   H19       1.0  0.9693100495471001  0.01969811165660927  0.5774000151406123  1.0000
  H   H20       1.0  0.5306899496124606  0.519698111739755  0.9225999844694334  1.0000
  H   H21       1.0  0.11155543382122872  0.8511562470634914  0.7192283445547193  1.0000
  H   H22       1.0  0.38844456650398507  0.3511562469803457  0.7807716552690996  1.0000
  H   H23       1.0  0.8884445664328385  0.14884375310280004  0.280771655466818  1.0000
  H   H24       1.0  0.6115554337500821  0.6488437531859458  0.21922834475243766  1.0000
  H   H25       1.0  0.848950441776587  0.9116849180734861  0.41001337407163846  1.0000
  H   H26       1.0  0.6510495584063337  0.4116849179903404  0.08998662614761713  1.0000
  H   H27       1.0  0.15104955847748022  0.0883150816874088  0.5899866259498987  1.0000
  H   H28       1.0  0.34895044184773355  0.5883150817705545  0.91001337387392  1.0000
  H   H29       1.0  0.6831793582770476  0.9467003559290611  0.33542157501917297  1.0000
  H   H30       1.0  0.8168206404878645  0.4467003558459153  0.16457842435316458  1.0000
  H   H31       1.0  0.3168206409519479  0.053299643831833936  0.664578425004762  1.0000
  H   H32       1.0  0.18317935874113095  0.5532996439149797  0.8354215756707705  1.0000
  H   H33       1.0  0.6483162526559201  0.8491545197645317  0.28972410026877543  1.0000
  H   H34       1.0  0.8516837475270007  0.34915451968138594  0.2102758999504802  1.0000
  H   H35       1.0  0.35168374759814713  0.1508454804017598  0.7102758997527616  1.0000
  H   H36       1.0  0.1483162527270665  0.650845480079509  0.789724100071057  1.0000
  H   H37       1.0  0.8068382878752812  0.8472194769394782  0.2534987357696336  1.0000
  H   H38       1.0  0.6931617112825676  0.3472194768563325  0.24650126445201984  1.0000
  H   H39       1.0  0.19316171135371416  0.1527805228214168  0.7465012642543013  1.0000
  H   H40       1.0  0.30683828794642787  0.6527805229045625  0.7534987355719153  1.0000
  H   H41       1.0  0.5073525411012444  0.797275325522647  0.19380156146018762  1.0000
  H   H42       1.0  0.9926474580566047  0.2972753254395014  0.30619843876146585  1.0000
  H   H43       1.0  0.4926474581277511  0.20272467464364433  0.8061984385637475  1.0000
  H   H44       1.0  0.0073525411723909745  0.7027246747267901  0.6938015612624693  1.0000
  H   H45       1.0  0.395416789428394  0.7787614815074704  0.05560091848690293  1.0000
  H   H46       1.0  0.10458321089510808  0.2787614814243247  0.4443990819485237  1.0000
  H   H47       1.0  0.6045832098006015  0.22123851825342455  0.944399081537032  1.0000
  H   H48       1.0  0.8954167893589592  0.7212385183365703  0.5556009180730136  1.0000
  H   H49       1.0  0.7302067225398152  0.7814284303380816  0.12852210352965535  1.0000
  H   H50       1.0  0.7697932776431055  0.28142843025493586  0.37147789668960024  1.0000
  H   H51       1.0  0.269793277714252  0.21857156982820986  0.8714778964918819  1.0000
  H   H52       1.0  0.23020672158589003  0.7185715699113555  0.6285221033343348  1.0000
  H   H53       1.0  0.6273763512229388  0.7241009055556407  0.1366339794907489  1.0000
  H   H54       1.0  0.8726236489599819  0.22410090547249492  0.3633660207285067  1.0000
  H   H55       1.0  0.37262364903112843  0.2758990946106508  0.8633660205307884  1.0000
  H   H56       1.0  0.12737635026901356  0.7758990942884  0.6366339792954283  1.0000
  H   H57       1.0  0.43800740408045447  0.7536301569495604  0.7878900266534745  1.0000
  H   H58       1.0  0.06199259561262434  0.2536301568664146  0.7121099740220579  1.0000
  H   H59       1.0  0.5619925961736127  0.2463698428113346  0.2121099733680626  1.0000
  H   H60       1.0  0.938007403616371  0.7463698428944803  0.2878900260018771  1.0000
  H   H61       1.0  0.6900661700249996  0.7300873759736781  0.9545308606256881  1.0000
  H   H62       1.0  0.8099338305525697  0.23008737629592896  0.5454691398312757  1.0000
  H   H63       1.0  0.3099338302290677  0.26991262378721675  0.04546913939584915  1.0000
  H   H64       1.0  0.19006616970149745  0.7699126238703624  0.45453086019026145  1.0000
  H   H65       1.0  0.853998696940094  0.11882654869651219  0.6234011610609282  1.0000
  H   H66       1.0  0.6460013022194666  0.6188265487796578  0.8765988385491172  1.0000
  H   H67       1.0  0.1460013022889015  0.8811734514697792  0.3765988389630068  1.0000
  H   H68       1.0  0.35399869803460055  0.3811734513866335  0.12340116147241985  1.0000
  H   H69       1.0  0.7506429164555146  0.16685494483549598  0.6706923520282505  1.0000
  H   H70       1.0  0.7493570830969828  0.6668549449186417  0.829307648431111  1.0000
  H   H71       1.0  0.24935708379855254  0.8331450553307954  0.3293076479932866  1.0000
  H   H72       1.0  0.2506429161320126  0.3331450552476497  0.170692351592824  1.0000
  H   H73       1.0  0.6164818761039356  0.00880074802343749  0.8203385235549829  1.0000
  H   H74       1.0  0.883518123055625  0.5088007481065832  0.6796614760550627  1.0000
  H   H75       1.0  0.38351812312505984  0.9911992521428539  0.17966147646895197  1.0000
  H   H76       1.0  0.11648187617337047  0.49119925205970816  0.3203385239688724  1.0000
  H   H77       1.0  0.7665531824481759  0.019826212072074457  0.9470367857260221  1.0000
  H   H78       1.0  0.7334468171043216  0.5198262117498237  0.5529632147333394  1.0000
  H   H79       1.0  0.23344681780589124  0.9801737880942168  0.052963214295515  1.0000
  H   H80       1.0  0.2665531821246739  0.4801737880110712  0.4470367852905956  1.0000
  H   H81       1.0  0.6009518033148634  0.06099274495489153  0.5389703788513192  1.0000
  H   H82       1.0  0.8990481972627059  0.5609927450380372  0.9610296216056445  1.0000
  H   H83       1.0  0.39904819693920385  0.9390072552113999  0.4610296211702181  1.0000
  H   H84       1.0  0.10095180299136132  0.43900725512825417  0.038970378415892515  1.0000
  H   H85       1.0  0.4976025628680012  0.10095970202068587  0.6022939463318674  1.0000
  H   H86       1.0  0.002397436432140821  0.6009597021038316  0.8977060534943491  1.0000
  H   H87       1.0  0.5023974363609943  0.8990402977402091  0.39770605369206763  1.0000
  H   H88       1.0  0.9976025638219262  0.39904029806245983  0.10229394652718801  1.0000
  H   H89       1.0  0.5385639271915745  0.03154470095753219  0.643180664423572  1.0000
  H   H90       1.0  0.9614360719679862  0.5315447010406779  0.8568193351864736  1.0000
  H   H91       1.0  0.46143607203742104  0.9684552992087592  0.35681933560036305  1.0000
  H   H92       1.0  0.038563927261009365  0.4684552991256135  0.14318066483746142  1.0000
  H   H93       1.0  0.08291544401694101  0.7589016949062732  0.057432396334722774  1.0000
  H   H94       1.0  0.4170845559136242  0.2589016948231276  0.44256760325138783  1.0000
  H   H95       1.0  0.9170845562371261  0.24109830526001816  0.9425676036868145  1.0000
  H   H96       1.0  0.582915444340443  0.7410983053431639  0.5574323967701493  1.0000
  C   C1        1.0  0.14878470723003684  0.09274792329322601  0.15394415705235642  1.0000
  C   C2        1.0  0.35121529270052837  0.5927479233763717  0.3460558425337542  1.0000
  C   C3        1.0  0.8512152930240304  0.9072520764676689  0.8460558429691808  1.0000
  C   C4        1.0  0.6487847075535389  0.4072520763845232  0.6539441574877829  1.0000
  C   C5        1.0  0.23059441610934478  0.0852430246372773  0.2704581508389995  1.0000
  C   C6        1.0  0.26940558382122043  0.585243024720423  0.22954184874711117  1.0000
  C   C7        1.0  0.7694055841447225  0.9147569751236176  0.7295418491825377  1.0000
  C   C8        1.0  0.7305944164328467  0.4147569754458684  0.7704581512744259  1.0000
  C   C9        1.0  0.17607630201365615  0.0511684912817895  0.3323998797073872  1.0000
  C   C10       1.0  0.32392369830984585  0.5511684913649352  0.1676001207280393  1.0000
  C   C11       1.0  0.823923698240411  0.9488315088845019  0.66760012031415  1.0000
  C   C12       1.0  0.6760763009191496  0.4488315088013562  0.8323998792958957  1.0000
  C   C13       1.0  0.042525180811691314  0.023598311371687008  0.27662366287656537  1.0000
  C   C14       1.0  0.45747481951181074  0.5235983110494362  0.2233763375588612  1.0000
  C   C15       1.0  0.957474819442376  0.9764016887946044  0.7233763371449718  1.0000
  C   C16       1.0  0.5425251807422565  0.4764016887114587  0.776623662462676  1.0000
  C   C17       1.0  0.9695615148072739  0.031779444964818174  0.15739861812083591  1.0000
  C   C18       1.0  0.5304384853756468  0.5317794450479639  0.34260138209841967  1.0000
  C   C19       1.0  0.030438485446793225  0.9682205552014732  0.8426013819007012  1.0000
  C   C20       1.0  0.4695615138533488  0.46822055511832755  0.6573986179255153  1.0000
  C   C21       1.0  0.789961761212649  0.9684978743500069  0.15017269223272012  1.0000
  C   C22       1.0  0.7100382385773347  0.4684978742668612  0.34982730713721955  1.0000
  C   C23       1.0  0.21003823904141816  0.03150212581628451  0.849827307788817  1.0000
  C   C24       1.0  0.2899617606516607  0.5315021254940338  0.6501726928867154  1.0000
  C   C25       1.0  0.850938545845583  0.9602212471891918  0.2703409924725076  1.0000
  C   C26       1.0  0.6490614543373378  0.46022124710604606  0.22965900774674802  1.0000
  C   C27       1.0  0.14906145440848426  0.03977875297709963  0.7296590075490297  1.0000
  C   C28       1.0  0.3509385448916578  0.5397787526548489  0.770340992277187  1.0000
  C   C29       1.0  0.9775518857766025  0.9874399629658671  0.3317537582677837  1.0000
  C   C30       1.0  0.5224481144063182  0.48743996328811795  0.1682462419514719  1.0000
  C   C31       1.0  0.022448114477464764  0.01256003679502778  0.6682462417537535  1.0000
  C   C32       1.0  0.4775518858477489  0.5125600368781735  0.8317537580700652  1.0000
  C   C33       1.0  0.4116575930212033  0.9358791942624024  0.7895013756792575  1.0000
  C   C34       1.0  0.08834240730401047  0.43587919417925675  0.7104986241445612  1.0000
  C   C35       1.0  0.5883424072328639  0.06412080590388897  0.21049862434227964  1.0000
  C   C36       1.0  0.9116575929500568  0.5641208055816382  0.28950137587697594  1.0000
  C   C37       1.0  0.28262260902757674  0.9060813219063176  0.7213042503305339  1.0000
  C   C38       1.0  0.217377391297637  0.4060813218231719  0.7786957494932848  1.0000
  C   C39       1.0  0.7173773912264905  0.09391867785457736  0.2786957496910033  1.0000
  C   C40       1.0  0.7826226089564302  0.593918677937723  0.22130425052825237  1.0000
  C   C41       1.0  0.2184073842854762  0.8674729934978538  0.7700099060824858  1.0000
  C   C42       1.0  0.2815926164326743  0.36747299382010457  0.7299900945906489  1.0000
  C   C43       1.0  0.781592615968591  0.13252700626304115  0.2299900939390514  1.0000
  C   C44       1.0  0.7184073838213929  0.6325270063461869  0.27000990543088826  1.0000
  C   C45       1.0  0.28190275207294524  0.8520741226124762  0.8822992050173838  1.0000
  C   C46       1.0  0.2180972472271967  0.35207412252933035  0.6177007948088327  1.0000
  C   C47       1.0  0.718097248181122  0.1479258775538153  0.11770079500415327  1.0000
  C   C48       1.0  0.7819027520017988  0.6479258772315646  0.38229920521510236  1.0000
  C   C49       1.0  0.4205295802253307  0.8746312352115554  0.9557591084102368  1.0000
  C   C50       1.0  0.07947042009988303  0.3746312351284097  0.5442408914135819  1.0000
  C   C51       1.0  0.5794704200287365  0.12536876495473598  0.044240891611300306  1.0000
  C   C52       1.0  0.9205295801541843  0.6253687646324853  0.45575910860795527  1.0000
  C   C53       1.0  0.47599565903927055  0.9193158257045814  0.9113515194377452  1.0000
  C   C54       1.0  0.02400434026087152  0.4193158256214357  0.5886484803884715  1.0000
  C   C55       1.0  0.524004340189725  0.08068417446170995  0.08864848058618992  1.0000
  C   C56       1.0  0.9759956589681239  0.5806841741394592  0.41135151963546357  1.0000
  C   C57       1.0  0.6619698649139736  0.9350748374237425  0.08251913512230015  1.0000
  C   C58       1.0  0.8380301348760102  0.43507483774599337  0.4174808642476395  1.0000
  C   C59       1.0  0.3380301349471568  0.06492516233715236  0.917480864049921  1.0000
  C   C60       1.0  0.161969865378057  0.5649251624202981  0.5825191357738977  1.0000
  C   C61       1.0  0.6247010661177366  0.8881083590594603  0.1319557167459413  1.0000
  C   C62       1.0  0.8752989340651842  0.38810835938171095  0.3680442834733143  1.0000
  C   C63       1.0  0.37529893311125895  0.1118916407014347  0.8680442832779937  1.0000
  C   C64       1.0  0.12470106618888302  0.6118916407845804  0.6319557165482228  1.0000
  C   C65       1.0  0.5097088463284289  0.8549020487003737  0.0647849714335468  1.0000
  C   C66       1.0  0.9902911538544917  0.35490204861722796  0.4352150287857088  1.0000
  C   C67       1.0  0.49029115290056663  0.1450979510605213  0.9352150285903883  1.0000
  C   C68       1.0  0.009708846399575373  0.6450979511436671  0.5647849712358284  1.0000
  C   C69       1.0  0.7739853967376852  0.9233309354506224  0.32512668114589444  1.0000
  C   C70       1.0  0.7260146030522986  0.42333093536747674  0.17487331822404528  1.0000
  C   C71       1.0  0.22601460209837343  0.07666906431027247  0.6748733180287246  1.0000
  C   C72       1.0  0.27398539720176857  0.5766690643934183  0.825126681797492  1.0000
  C   C73       1.0  0.7144855237465767  0.8732400086251657  0.2525550184045926  1.0000
  C   C74       1.0  0.7855144764363441  0.37324000854201994  0.24744498181466304  1.0000
  C   C75       1.0  0.2855144765074905  0.12675999154112574  0.7474449816169446  1.0000
  C   C76       1.0  0.21448552381772312  0.6267599916242714  0.752555018206874  1.0000
  C   C77       1.0  0.4992009836822503  0.79797423955379  0.10461091751426466  1.0000
  C   C78       1.0  0.0007990166412517883  0.2979742394706443  0.39538908292116187  1.0000
  C   C79       1.0  0.500799016571817  0.2020257606125014  0.8953890825072726  1.0000
  C   C80       1.0  0.9992009836128154  0.7020257602902507  0.6046109171003753  1.0000
  C   C81       1.0  0.6215694110741357  0.7624982433513884  0.09069174894351432  1.0000
  C   C82       1.0  0.878430589108785  0.2624982432682426  0.40930825127574133  1.0000
  C   C83       1.0  0.37843058917993144  0.23750175640950666  0.9093082510780228  1.0000
  C   C84       1.0  0.12156941114528222  0.7375017564926524  0.5906917487457959  1.0000
  C   C85       1.0  0.4773358409432445  0.7584672570639251  0.8794677014196689  1.0000
  C   C86       1.0  0.02266415977490611  0.25846725698077955  0.6205322992534658  1.0000
  C   C87       1.0  0.5226641593108228  0.24153274310236617  0.12053229860186825  1.0000
  C   C88       1.0  0.977335840479161  0.7415327431855119  0.3794677007680714  1.0000
  C   C89       1.0  0.5952805846897725  0.7496670218670051  0.9681062435085536  1.0000
  C   C90       1.0  0.9047194154948598  0.2496670217838594  0.5318937560990942  1.0000
  C   C91       1.0  0.4047194155642946  0.2503329782992863  0.03189375651298361  1.0000
  C   C92       1.0  0.09528058475920746  0.7503329783824321  0.46810624392244293  1.0000
  C   C93       1.0  0.9313592265864672  0.1313745440005955  0.807060332321411  1.0000
  C   C94       1.0  0.5686407729660304  0.6313745436783448  0.6929396681379507  1.0000
  C   C95       1.0  0.0686407726425284  0.8686254561656959  0.19293966770252405  1.0000
  C   C96       1.0  0.43135922728803683  0.36862545608255015  0.30706033188358656  1.0000
  C   C97       1.0  0.8097554444362342  0.12798673986643164  0.6907560548859081  1.0000
  C   C98       1.0  0.6902445557483982  0.6279867395441809  0.8092439447217398  1.0000
  C   C99       1.0  0.19024455581783298  0.8720132602998597  0.3092439451356291  1.0000
  C   C100      1.0  0.309755444505669  0.3720132602167141  0.19075605529979744  1.0000
  C   C101      1.0  0.7706607962013875  0.06597784801835217  0.8130185939840654  1.0000
  C   C102      1.0  0.72933920335111  0.5659778481014979  0.6869814064752963  1.0000
  C   C103      1.0  0.22933920302760807  0.9340221521479392  0.1869814060398697  1.0000
  C   C104      1.0  0.27066079690295713  0.4340221520647935  0.31301859354624095  1.0000
  C   C105      1.0  0.5804192148976636  0.06868495136796984  0.6179177277595854  1.0000
  C   C106      1.0  0.9195807856799056  0.568684951045719  0.8820822726973784  1.0000
  C   C107      1.0  0.41958078535640353  0.9313150487983216  0.38208227226195174  1.0000
  C   C108      1.0  0.08041921457416162  0.43131504871517584  0.11791772732415887  1.0000
  C   C109      1.0  0.11674728398778848  0.7187267427021792  0.0940714946233944  1.0000
  C   C110      1.0  0.3832527163357135  0.21872674261903347  0.40592850581203216  1.0000
  C   C111      1.0  0.8832527162662787  0.2812732574641122  0.9059285053981427  1.0000
  C   C112      1.0  0.616747282893282  0.7812732571418615  0.5940714942119029  1.0000
  N   N1        1.0  0.023580267302007508  0.06741941308812968  0.09893048998562455  1.0000
  N   N2        1.0  0.47641973199642285  0.5674194127658789  0.40106951045219985  1.0000
  N   N3        1.0  0.9764197319269879  0.9325805870781617  0.9010695100383105  1.0000
  N   N4        1.0  0.5235802672325727  0.432580586995016  0.5989304895717352  1.0000
  N   N5        1.0  0.8462758770296173  0.0040580683923364365  0.09672090412391603  1.0000
  N   N6        1.0  0.6537241231533034  0.5040580684754821  0.40327909609533963  1.0000
  N   N7        1.0  0.15372412322444992  0.9959419313685586  0.9032790958976212  1.0000
  N   N8        1.0  0.34627587710076385  0.49594193169080925  0.5967209039261976  1.0000
  N   N9        1.0  0.5946612427335323  0.9477371914196084  0.9733004172605575  1.0000
  N   N10       1.0  0.905338757844037  0.4477371917418593  0.5266995831964062  1.0000
  N   N11       1.0  0.4053387575205349  0.052262808341286486  0.026699582760979675  1.0000
  N   N12       1.0  0.09466124241003027  0.5522628084244322  0.4733004168251309  1.0000
  N   N13       1.0  0.1847689609964016  0.8228208967469977  0.9253288007239178  1.0000
  N   N14       1.0  0.3152310393288121  0.32282089666385194  0.5746711990999009  1.0000
  N   N15       1.0  0.8152310392576656  0.17717910341929374  0.07467119929761941  1.0000
  N   N16       1.0  0.6847689609252552  0.6771791035024394  0.4253288009216362  1.0000
  N   N17       1.0  0.20936404520156968  0.9170730456186813  0.6035200323273424  1.0000
  N   N18       1.0  0.29063595409857235  0.4170730455355355  0.8964799674988742  1.0000
  N   N19       1.0  0.7906359550524976  0.08292695454761018  0.3964799676941947  1.0000
  N   N20       1.0  0.7093640451304232  0.5829269542253595  0.10352003252506091  1.0000
  N   N21       1.0  0.9023589988786493  0.09090805336725949  0.8709701728676997  1.0000
  N   N22       1.0  0.5976410013059831  0.5909080534504052  0.6290298267399481  1.0000
  N   N23       1.0  0.09764100098248102  0.9090919467990319  0.1290298263045215  1.0000
  N   N24       1.0  0.40235899894808413  0.4090919467158862  0.37097017328158904  1.0000
  N   N25       1.0  0.7164430352545637  0.08481777429482071  0.7057934356780635  1.0000
  N   N26       1.0  0.7835569649300688  0.5848177743779663  0.7942065639295842  1.0000
  N   N27       1.0  0.2835569649995036  0.9151822254660742  0.2942065643434737  1.0000
  N   N28       1.0  0.21644303532399845  0.415182225788325  0.20579343609195289  1.0000
  N   N29       1.0  0.7139241193115815  0.02992202583165052  0.8614215904836157  1.0000
  N   N30       1.0  0.7860758808730507  0.5299220259147962  0.638578409124032  1.0000
  N   N31       1.0  0.2860758809424856  0.9700779743346408  0.1385784095379214  1.0000
  N   N32       1.0  0.21392411938101644  0.4700779742514952  0.36142159089750514  1.0000
  O   O1        1.0  0.20335440107904293  0.8279384035093081  0.02847237453674582  1.0000
  O   O2        1.0  0.29664559924445916  0.3279384034261625  0.47152762589868075  1.0000
  O   O3        1.0  0.7966455991750244  0.1720615966569832  0.9715276254847914  1.0000
  O   O4        1.0  0.7033544010096081  0.672061596740129  0.5284723741228565  1.0000
  O   O5        1.0  0.08259417646935786  0.7953173684736885  0.8587712068801476  1.0000
  O   O6        1.0  0.41740582385585573  0.2953173683905428  0.641228792943671  1.0000
  O   O7        1.0  0.9174058237847093  0.2046826316926029  0.1412287931413895  1.0000
  O   O8        1.0  0.5825941763982114  0.7046826313703521  0.35877120707786614  1.0000
  O   O9        1.0  0.10170907217947396  0.8876125685174006  0.5480363980399598  1.0000
  O   O10       1.0  0.39829092814573985  0.3876125688396513  0.9519636017838591  1.0000
  O   O11       1.0  0.8982909280745933  0.11238743124349443  0.4519636019815773  1.0000
  O   O12       1.0  0.6017090721083276  0.6123874313266402  0.04803639823767827  1.0000
  O   O13       1.0  0.25255269117957496  0.9551582654394742  0.5571080388681726  1.0000
  O   O14       1.0  0.24744730851350397  0.4551582653563286  0.9428919618073599  1.0000
  O   O15       1.0  0.7474473080494205  0.044841734726817156  0.4428919611557624  1.0000
  O   O16       1.0  0.7525526917405633  0.5448417348099629  0.057108038214177224  1.0000
  O   O17       1.0  0.4695020895452768  0.9729857169038568  0.7517508226410208  1.0000
  O   O18       1.0  0.030497910779936913  0.47298571722610766  0.7482491771827979  1.0000
  O   O19       1.0  0.5304979107087904  0.027014282857038042  0.24824917738051638  1.0000
  O   O20       1.0  0.9695020894741302  0.5270142829401837  0.25175082283873923  1.0000
  O   O21       1.0  0.033767055523221914  0.16369432649708499  0.8387653492702435  1.0000
  O   O22       1.0  0.4662329448019919  0.6636943261748343  0.6612346505535753  1.0000
  O   O23       1.0  0.9662329447308454  0.8363056736692064  0.1612346507512937  1.0000
  O   O24       1.0  0.5337670554520754  0.33630567358606067  0.33876534946796194  1.0000
  Cl  Cl1       1.0  0.2023897804379023  0.6852177110526009  0.009468191610431324  1.0000
  Cl  Cl2       1.0  0.29761021949266286  0.18521771096945516  0.49053180797567925  1.0000
  Cl  Cl3       1.0  0.797610219816165  0.31478228911369055  0.9905318084111059  1.0000
  Cl  Cl4       1.0  0.7023897807614043  0.8147822891968362  0.5094681920458579  1.0000
  Cl  Cl5       1.0  0.2426039462548062  0.7271083756531312  0.23381188044365864  1.0000
  Cl  Cl6       1.0  0.25739605367575896  0.22710837556998553  0.266188119142452  1.0000
  Cl  Cl7       1.0  0.757396053999261  0.2728916245131602  0.7661881195778787  1.0000
  Cl  Cl8       1.0  0.7426039465783082  0.7728916245963059  0.7338118808790852  1.0000
  Cl  Cl9       1.0  0.9575725838519518  0.6828022977504998  0.09291972020512804  1.0000
  Cl  Cl10      1.0  0.542427416330969  0.18280229766735412  0.4070802800141276  1.0000
  Cl  Cl11      1.0  0.042427415377043864  0.3171977024157916  0.907080279818807  1.0000
  Cl  Cl12      1.0  0.45757258392309813  0.8171977020935408  0.5929197200074096  1.0000
