data_image0
_chemical_formula_structural       H120C72O52S16
_chemical_formula_sum              "H120 C72 O52 S16"
_cell_length_a       5.702081699123714
_cell_length_b       20.12182880373459
_cell_length_c       22.177477646757048
_cell_angle_alpha    90.0
_cell_angle_beta     90.0
_cell_angle_gamma    90.0

_space_group_name_H-M_alt    "P 1"
_space_group_IT_number       1

loop_
  _space_group_symop_operation_xyz
  'x, y, z'

loop_
  _atom_site_type_symbol
  _atom_site_label
  _atom_site_symmetry_multiplicity
  _atom_site_fract_x
  _atom_site_fract_y
  _atom_site_fract_z
  _atom_site_occupancy
  H   H1        1.0  0.40222899127391804  0.9270752609990277  0.33163426234252  1.0000
  H   H2        1.0  0.09777100880292111  0.07292473881537327  0.8316342621901797  1.0000
  H   H3        1.0  0.9022289913507572  0.5729247387225738  0.6683657378037073  1.0000
  H   H4        1.0  0.5977710088797602  0.42707526109182725  0.1683657379560476  1.0000
  H   H5        1.0  0.7125150224740496  0.7899492160995755  0.31494081478744446  1.0000
  H   H6        1.0  0.7874849777564679  0.21005078371482547  0.8149408146351041  1.0000
  H   H7        1.0  0.21251502239721046  0.7100507841189987  0.6850591853587829  1.0000
  H   H8        1.0  0.28748497767962866  0.289949216192375  0.1850591850602153  1.0000
  H   H9        1.0  0.5285430723420107  0.831559947319225  0.36756560010294936  1.0000
  H   H10       1.0  0.9714569278885068  0.16844005299214876  0.8675655999506091  1.0000
  H   H11       1.0  0.028543072265171488  0.6684400528993493  0.632434400043278  1.0000
  H   H12       1.0  0.4714569278116677  0.33155994741202444  0.1324343997447103  1.0000
  H   H13       1.0  0.048729301799148333  0.7382531838876855  0.35389254066716  1.0000
  H   H14       1.0  0.4512706982776908  0.26174681642368824  0.8538925405148197  1.0000
  H   H15       1.0  0.5487293018759875  0.7617468163308887  0.6461074594790673  1.0000
  H   H16       1.0  0.9512706983545299  0.2382531834835123  0.1461074591804997  1.0000
  H   H17       1.0  0.3549043221023995  0.7270034922116492  0.433552650267511  1.0000
  H   H18       1.0  0.14509567797443965  0.2729965080997245  0.9335526505660785  1.0000
  H   H19       1.0  0.8549043221792386  0.772996508006925  0.5664473494278084  1.0000
  H   H20       1.0  0.6450956780512788  0.22700349230444875  0.06644734958014874  1.0000
  H   H21       1.0  0.3676613052251034  0.8061668299746838  0.5184541327530691  1.0000
  H   H22       1.0  0.13233869485173574  0.19383316983971718  0.01845413290540937  1.0000
  H   H23       1.0  0.8676613053019426  0.6938331697469177  0.4815458673931583  1.0000
  H   H24       1.0  0.6323386949285749  0.3061668300674833  0.9815458672408179  1.0000
  H   H25       1.0  0.07913391701654221  0.8998943687782128  0.5235052076220986  1.0000
  H   H26       1.0  0.42086608306029694  0.10010563153316096  0.02350520777443896  1.0000
  H   H27       1.0  0.5791339170933814  0.6001056314403614  0.4764947920732207  1.0000
  H   H28       1.0  0.920866083137136  0.3998943683740396  0.9764947923717884  1.0000
  H   H29       1.0  0.7717078344696879  0.910028165859428  0.44358581154690185  1.0000
  H   H30       1.0  0.7282921657608294  0.08997183445194563  0.9435858118454694  1.0000
  H   H31       1.0  0.2717078343928488  0.5899718343591461  0.5564141881484176  1.0000
  H   H32       1.0  0.22829216568399033  0.4100281654552549  0.05641418830075784  1.0000
  H   H33       1.0  0.7441888496006858  0.9824365395818795  0.23723422987056147  1.0000
  H   H34       1.0  0.7558111506298317  0.017563460232521592  0.7372342297182212  1.0000
  H   H35       1.0  0.2441888495238466  0.5175634601397221  0.7627657702756658  1.0000
  H   H36       1.0  0.25581115055299253  0.4824365396746789  0.2627657699770982  1.0000
  H   H37       1.0  0.8271994034608208  0.026865540168976496  0.3287441149136318  1.0000
  H   H38       1.0  0.6728005967696965  0.9731344596454244  0.8287441147612915  1.0000
  H   H39       1.0  0.32719940338398174  0.473134459738224  0.6712558852325955  1.0000
  H   H40       1.0  0.1728005966928574  0.526865540076177  0.17125588493402785  1.0000
  H   H41       1.0  0.265584084884776  0.041487776689813606  0.2659722991925791  1.0000
  H   H42       1.0  0.2344159151920632  0.9585122231245874  0.7659722990402389  1.0000
  H   H43       1.0  0.7655840849616151  0.4585122232173869  0.7340277009536483  1.0000
  H   H44       1.0  0.7344159152689023  0.5414877765970141  0.23402770065508063  1.0000
  H   H45       1.0  0.6072088322642042  0.1575616337323957  0.2959764155577827  1.0000
  H   H46       1.0  0.8927911679663132  0.8424383660820054  0.7959764158563503  1.0000
  H   H47       1.0  0.10720883218736513  0.3424383661748048  0.7040235841375367  1.0000
  H   H48       1.0  0.39279116788947405  0.6575616336395962  0.20402358428987705  1.0000
  H   H49       1.0  0.5770082495495679  0.23645379534870814  0.2575162167206654  1.0000
  H   H50       1.0  0.9229917506809495  0.7635462044656928  0.7575162170192331  1.0000
  H   H51       1.0  0.07700824947272876  0.2635462045584923  0.742483782974654  1.0000
  H   H52       1.0  0.4229917506041104  0.7364537952559086  0.2424837831269943  1.0000
  H   H53       1.0  0.792294728203259  0.1758565254935102  0.2331410394074308  1.0000
  H   H54       1.0  0.7077052720272584  0.8241434743208907  0.7331410392550904  1.0000
  H   H55       1.0  0.2922947281264198  0.3241434744136903  0.7668589607387966  1.0000
  H   H56       1.0  0.2077052719504193  0.6758565254007107  0.26685896044022894  1.0000
  H   H57       1.0  0.38903519048857305  0.9590624062171871  0.1539765443298435  1.0000
  H   H58       1.0  0.11096480958826614  0.04093759359721393  0.6539765441775033  1.0000
  H   H59       1.0  0.8890351905654121  0.5409375935044145  0.8460234558163838  1.0000
  H   H60       1.0  0.6109648079113599  0.45906240630998657  0.3460234559687241  1.0000
  H   H61       1.0  0.8827807905266543  0.09719892307388092  0.044109560860860354  1.0000
  H   H62       1.0  0.6172192097038631  0.9028010772374928  0.544109561159428  1.0000
  H   H63       1.0  0.3827807904498151  0.40280107683331956  0.955890438834459  1.0000
  H   H64       1.0  0.11721920962702403  0.5971989229810813  0.4558904389867994  1.0000
  H   H65       1.0  0.08645909967858982  0.11986279793576025  0.10276115238620248  1.0000
  H   H66       1.0  0.4135409003982493  0.8801372023756134  0.60276115268477  1.0000
  H   H67       1.0  0.586459099755429  0.38013720197144024  0.897238847309117  1.0000
  H   H68       1.0  0.9135409004750884  0.6198627978429607  0.39723884746145727  1.0000
  H   H69       1.0  0.7833725375570222  0.10099678114858121  0.1208637647028338  1.0000
  H   H70       1.0  0.7166274626734953  0.8990032191627925  0.6208637645504935  1.0000
  H   H71       1.0  0.283372537480183  0.39900321875861927  0.8791362354433935  1.0000
  H   H72       1.0  0.21662746259665616  0.6009967810557817  0.3791362351448259  1.0000
  H   H73       1.0  0.10246056805706323  0.9199373203376231  0.26681189332030547  1.0000
  H   H74       1.0  0.39753943201977593  0.0800626794767779  0.7668118931679652  1.0000
  H   H75       1.0  0.6024605681339024  0.5800626793839784  0.7331881068259218  1.0000
  H   H76       1.0  0.8975394320966151  0.4199373204304226  0.23318810652735425  1.0000
  H   H77       1.0  0.07696552823286341  0.8092460287197055  0.21682654793265718  1.0000
  H   H78       1.0  0.4230344718439757  0.19075397109469552  0.716826547780317  1.0000
  H   H79       1.0  0.5769655283097026  0.6907539710018961  0.7831734522135702  1.0000
  H   H80       1.0  0.9230344719208149  0.30924602881250496  0.28317345236591046  1.0000
  H   H81       1.0  0.9092976799677922  0.8738967298407961  0.1808688491942432  1.0000
  H   H82       1.0  0.5907023202627251  0.12610327047057748  0.6808688490419029  1.0000
  H   H83       1.0  0.40929767989095317  0.6261032703777779  0.8191311509519842  1.0000
  H   H84       1.0  0.090702320185886  0.37389672993359574  0.3191311506534165  1.0000
  H   H85       1.0  0.8531573145904958  0.8580726105171638  0.0524362810109764  1.0000
  H   H86       1.0  0.6468426856400215  0.1419273892972372  0.5524362808586362  1.0000
  H   H87       1.0  0.3531573145136568  0.6419273892044377  0.947563719135251  1.0000
  H   H88       1.0  0.14684268556318233  0.35807261060996326  0.44756371883668333  1.0000
  H   H89       1.0  0.7380593881435883  0.802430740639402  0.10844039833139758  1.0000
  H   H90       1.0  0.7619406120869292  0.19756925967197173  0.6084403981790573  1.0000
  H   H91       1.0  0.23805938806674903  0.6975692595791722  0.8915596018148297  1.0000
  H   H92       1.0  0.26194061201009006  0.30243074023522876  0.3915596015162621  1.0000
  H   H93       1.0  0.8070349852593647  0.7710947524372276  0.03454107505828171  1.0000
  H   H94       1.0  0.6929650149711527  0.2289052473771734  0.5345410749059414  1.0000
  H   H95       1.0  0.30703498518252564  0.728905247284374  0.9654589250879455  1.0000
  H   H96       1.0  0.1929650148943135  0.2710947525300271  0.4654589252402859  1.0000
  H   H97       1.0  0.8448172815097164  0.1022120653177548  0.43394029849951166  1.0000
  H   H98       1.0  0.6551827187208011  0.8977879344966462  0.9339402983471714  1.0000
  H   H99       1.0  0.34481728143287715  0.39778793458944567  0.5660597016467157  1.0000
  H   H100      1.0  0.155182718643962  0.6022120652249553  0.06605970179905597  1.0000
  H   H101      1.0  0.002217604143052397  0.0802827221002982  0.5022401585704559  1.0000
  H   H102      1.0  0.49778239593378676  0.9197172777141028  0.00224015827188827  1.0000
  H   H103      1.0  0.5022176042198916  0.4197172778069023  0.49775984157577147  1.0000
  H   H104      1.0  0.9977823960106258  0.5802827220074986  0.9977598414234311  1.0000
  H   H105      1.0  0.8256818103331514  0.01940362348811632  0.4650488231473037  1.0000
  H   H106      1.0  0.674318189897366  0.9805963763262847  0.9650488234458713  1.0000
  H   H107      1.0  0.32568181025631227  0.4805963764190842  0.5349511765480156  1.0000
  H   H108      1.0  0.17431818982052688  0.5194036233953168  0.03495117670035596  1.0000
  H   H109      1.0  0.4720556740556095  0.11120642670335656  0.37816800916610915  1.0000
  H   H110      1.0  0.027944326021229617  0.8887935731110443  0.8781680094646768  1.0000
  H   H111      1.0  0.9720556741324488  0.3887935732038439  0.6218319905292102  1.0000
  H   H112      1.0  0.5279443260980687  0.611206426610557  0.12183199068155055  1.0000
  H   H113      1.0  0.3487123045440706  0.1394082788081055  0.44881253353243616  1.0000
  H   H114      1.0  0.15128769553276855  0.8605917215032682  0.9488125338310037  1.0000
  H   H115      1.0  0.8487123046209097  0.3605917215960677  0.5511874661628833  1.0000
  H   H116      1.0  0.6512876956096076  0.639408278715306  0.05118746631522356  1.0000
  H   H117      1.0  0.18362716377089264  0.14907529227379496  0.37986769434223255  1.0000
  H   H118      1.0  0.3163728363059465  0.8509247075406061  0.8798676941898923  1.0000
  H   H119      1.0  0.6836271638477318  0.35092470763340555  0.6201323058039948  1.0000
  H   H120      1.0  0.8163728363827856  0.6490752926779682  0.12013230595633509  1.0000
  C   C1        1.0  0.5329231288402959  0.9222874059317926  0.2948835257176459  1.0000
  C   C2        1.0  0.9670768713902216  0.07771259388260848  0.7948835260162135  1.0000
  C   C3        1.0  0.032923128763456704  0.5777125942867818  0.7051164739776734  1.0000
  C   C4        1.0  0.4670768713133824  0.42228740602459197  0.20511647413001374  1.0000
  C   C5        1.0  0.7043903633680393  0.8314021430743439  0.34694614340531776  1.0000
  C   C6        1.0  0.7956096368624781  0.16859785674005714  0.8469461432529776  1.0000
  C   C7        1.0  0.20439036329120022  0.6685978566472577  0.6530538567409095  1.0000
  C   C8        1.0  0.29560963678563895  0.3314021431671434  0.15305385689324982  1.0000
  C   C9        1.0  0.8908920124348054  0.8246090214682884  0.39411944312242886  1.0000
  C   C10       1.0  0.6091079877957121  0.17539097834611267  0.8941194429700885  1.0000
  C   C11       1.0  0.3908920123579662  0.6753909782533132  0.6058805570237985  1.0000
  C   C12       1.0  0.10910798771887288  0.32460902156108784  0.1058805567252309  1.0000
  C   C13       1.0  0.05616602091990676  0.7734830447971686  0.39123089822023754  1.0000
  C   C14       1.0  0.44383397915693235  0.2265169550172324  0.8912308980678972  1.0000
  C   C15       1.0  0.556166020996746  0.7265169549244329  0.6087691019259898  1.0000
  C   C16       1.0  0.9438339792337714  0.27348304488996805  0.10876910162742214  1.0000
  C   C17       1.0  0.22688777156574563  0.7669748674700811  0.4360387255948403  1.0000
  C   C18       1.0  0.2731122285110935  0.23302513284129256  0.9360387254424999  1.0000
  C   C19       1.0  0.7268877716425848  0.7330251327484931  0.563961274551387  1.0000
  C   C20       1.0  0.7731122285879326  0.2669748675628807  0.06396127425281943  1.0000
  C   C21       1.0  0.23491646221166104  0.8122632097419757  0.4836082389905291  1.0000
  C   C22       1.0  0.2650835378651781  0.18773679007242522  0.9836082388381889  1.0000
  C   C23       1.0  0.7349164622885002  0.6877367899796257  0.5163917611556982  1.0000
  C   C24       1.0  0.7650835379420172  0.3122632098347753  0.01639176130803846  1.0000
  C   C25       1.0  0.07224071167961404  0.8642434035007994  0.4865048407151799  1.0000
  C   C26       1.0  0.42775928839722505  0.1357565963136017  0.9865048405628396  1.0000
  C   C27       1.0  0.5722407117564532  0.635756596717775  0.5134951594310474  1.0000
  C   C28       1.0  0.9277592884740643  0.3642434035935988  0.013495159583387708  1.0000
  C   C29       1.0  0.9005295453394014  0.869939821113632  0.44206186727612756  1.0000
  C   C30       1.0  0.599470454891116  0.13006017919774163  0.9420618671237873  1.0000
  C   C31       1.0  0.4005295452625624  0.6300601791049422  0.5579381328700997  1.0000
  C   C32       1.0  0.09947045481427678  0.3699398212064316  0.057938132571532124  1.0000
  C   C33       1.0  0.598766122646873  0.99068180056776  0.26917203593136807  1.0000
  C   C34       1.0  0.9012338775836443  0.009318199246641058  0.7691720357790278  1.0000
  C   C35       1.0  0.0987661225700339  0.5093181996508143  0.7308279642148593  1.0000
  C   C36       1.0  0.4012338775068052  0.4906818006605594  0.23082796391629165  1.0000
  C   C37       1.0  0.3943795562146346  0.02070214710914775  0.23427723624646513  1.0000
  C   C38       1.0  0.10562044386220452  0.979297853202226  0.7342772360941249  1.0000
  C   C39       1.0  0.8943795562914738  0.47929785279805276  0.7657227638997621  1.0000
  C   C40       1.0  0.6056204439390437  0.5207021470163482  0.2657227640521025  1.0000
  C   C41       1.0  0.618165422032043  0.18346313578191464  0.2527655980219061  1.0000
  C   C42       1.0  0.8818345781984743  0.8165368645294592  0.7527655978695658  1.0000
  C   C43       1.0  0.11816542195520395  0.3165368646222586  0.7472344021243212  1.0000
  C   C44       1.0  0.3818345781216352  0.6834631356891151  0.24723440227666152  1.0000
  C   C45       1.0  0.2757428151619836  0.9712506040391705  0.19247184319106628  1.0000
  C   C46       1.0  0.2242571849148555  0.028749395775230564  0.692471843038726  1.0000
  C   C47       1.0  0.7757428152388227  0.5287493956824311  0.807528156955161  1.0000
  C   C48       1.0  0.7242571849916946  0.47125060413196995  0.3075281571075013  1.0000
  C   C49       1.0  0.9322448608228312  0.08997666999651512  0.09143811312990004  1.0000
  C   C50       1.0  0.5677551394076862  0.9100233303148585  0.5914381129775597  1.0000
  C   C51       1.0  0.4322448607459921  0.41002333040765804  0.9085618870163272  1.0000
  C   C52       1.0  0.067755139330847  0.5899766699037156  0.40856188671775967  1.0000
  C   C53       1.0  0.21595093774072632  0.9078563672408111  0.2279089633414239  1.0000
  C   C54       1.0  0.2840490623361129  0.09214363307056271  0.7279089636399916  1.0000
  C   C55       1.0  0.7159509378175655  0.5921436329777632  0.7720910363538954  1.0000
  C   C56       1.0  0.784049062412952  0.40785636683663784  0.2720910365062358  1.0000
  C   C57       1.0  0.08681055378004683  0.8561379941172481  0.19150883151137135  1.0000
  C   C58       1.0  0.4131894462967923  0.14386200619412556  0.6915088313590311  1.0000
  C   C59       1.0  0.586810553856886  0.643862006101326  0.8084911686348559  1.0000
  C   C60       1.0  0.9131894463736314  0.35613799421004766  0.30849116878719623  1.0000
  C   C61       1.0  0.8551669403034633  0.8070660285602838  0.06955582300972654  1.0000
  C   C62       1.0  0.644833059927054  0.19293397125411732  0.5695558228573863  1.0000
  C   C63       1.0  0.35516694022662426  0.6929339711613178  0.9304441771365007  1.0000
  C   C64       1.0  0.1448330598502149  0.3070660286530832  0.4304441772888411  1.0000
  C   C65       1.0  0.9379647209933742  0.06287235928402281  0.4583977840909497  1.0000
  C   C66       1.0  0.5620352792371431  0.937127641027351  0.9583977843895174  1.0000
  C   C67       1.0  0.43796472091653516  0.43712764062317766  0.5416022156043697  1.0000
  C   C68       1.0  0.06203527916030397  0.5628723591912234  0.041602215756710005  1.0000
  C   C69       1.0  0.31117335450887645  0.11829523515070436  0.40419651787185046  1.0000
  C   C70       1.0  0.1888266455679627  0.8817047646636966  0.9041965177195103  1.0000
  C   C71       1.0  0.8111733545857156  0.3817047647564961  0.5958034822743767  1.0000
  C   C72       1.0  0.6888266456448018  0.6182952355548776  0.0958034824267171  1.0000
  O   O1        1.0  0.7389959057667609  0.8930794340455135  0.31468610412602593  1.0000
  O   O2        1.0  0.7610040944637565  0.10692056576888753  0.8146861044245934  1.0000
  O   O3        1.0  0.23899590568992177  0.606920565676088  0.6853138955692935  1.0000
  O   O4        1.0  0.26100409438691735  0.393079434138313  0.1853138957216338  1.0000
  O   O5        1.0  0.662591511198554  0.036039132778299385  0.3149572670642007  1.0000
  O   O6        1.0  0.8374084872782179  0.9639608670361016  0.8149572669118603  1.0000
  O   O7        1.0  0.1625915128754603  0.4639608671289011  0.6850427330820267  1.0000
  O   O8        1.0  0.33740848720137884  0.5360391326854999  0.18504273278345904  1.0000
  O   O9        1.0  0.4873154782098313  0.07382702509248494  0.1960510982923157  1.0000
  O   O10       1.0  0.012684521867007846  0.9261729752188887  0.6960510981399755  1.0000
  O   O11       1.0  0.9873154782866705  0.4261729753116883  0.8039489018539117  1.0000
  O   O12       1.0  0.512684521943847  0.5738270249996854  0.3039489020062519  1.0000
  O   O13       1.0  0.17788566588863128  0.1524382927575005  0.23284646983986973  1.0000
  O   O14       1.0  0.32211433418820784  0.8475617070569005  0.7328464701384374  1.0000
  O   O15       1.0  0.6778856659654705  0.34756170714969997  0.7671535298554497  1.0000
  O   O16       1.0  0.8221143325113015  0.6524382931616738  0.26715353000778996  1.0000
  O   O17       1.0  0.43272048002735336  0.17655384083879314  0.14432342987697855  1.0000
  O   O18       1.0  0.0672795200494858  0.8234461594725806  0.6443234297246383  1.0000
  O   O19       1.0  0.9327204801041925  0.3234461590684074  0.8556765702692488  1.0000
  O   O20       1.0  0.5672795201263249  0.6765538407459937  0.35567656997068114  1.0000
  O   O21       1.0  0.06141964610114604  0.002450657963596619  0.17051451342812968  1.0000
  O   O22       1.0  0.4385803539756931  0.9975493423477771  0.6705145132757894  1.0000
  O   O23       1.0  0.5614196461779851  0.49754934194360384  0.8294854867180977  1.0000
  O   O24       1.0  0.9385803540525322  0.5024506578707971  0.32948548687043794  1.0000
  O   O25       1.0  0.7950572035291423  0.9657018583913952  0.09001072447442646  1.0000
  O   O26       1.0  0.7049427967013752  0.03429814142300577  0.5900107243220862  1.0000
  O   O27       1.0  0.29505720345230313  0.5342981413302063  0.9099892756718009  1.0000
  O   O28       1.0  0.204942796624536  0.46570185848419476  0.4099892753732333  1.0000
  O   O29       1.0  0.2118258337451777  0.9898642252787312  0.06471803885280333  1.0000
  O   O30       1.0  0.2881741663316615  0.010135775032642512  0.5647180387004631  1.0000
  O   O31       1.0  0.7118258338220168  0.510135774939843  0.935281961293424  1.0000
  O   O32       1.0  0.7881741664085006  0.489864224874558  0.4352819609948564  1.0000
  O   O33       1.0  0.21818354693009592  0.8462575154619929  0.1357735423279891  1.0000
  O   O34       1.0  0.2818164531467432  0.15374248484938083  0.6357735421756489  1.0000
  O   O35       1.0  0.7181835470069351  0.6537424847565813  0.8642264578182383  1.0000
  O   O36       1.0  0.7818164532235824  0.3462575150578197  0.3642264579705785  1.0000
  O   O37       1.0  0.1448009855991518  0.7248981115122499  0.12401754400605532  1.0000
  O   O38       1.0  0.35519901447768737  0.27510188830215104  0.6240175443046229  1.0000
  O   O39       1.0  0.6448009856759909  0.7751018882093516  0.8759824556892641  1.0000
  O   O40       1.0  0.8551990145545265  0.2248981116050494  0.3759824558416044  1.0000
  O   O41       1.0  0.30176810870044796  0.7954753455127908  0.04100495441748206  1.0000
  O   O42       1.0  0.19823189137639116  0.20452465479858292  0.5410049542651417  1.0000
  O   O43       1.0  0.8017681087772872  0.7045246547057834  0.9589950457287453  1.0000
  O   O44       1.0  0.6982318914532303  0.29547534510861756  0.4589950458810856  1.0000
  O   O45       1.0  0.4335829282102259  0.8806185577282741  0.24823920590469079  1.0000
  O   O46       1.0  0.06641707186661326  0.11938144258309957  0.7482392057523506  1.0000
  O   O47       1.0  0.933582928287065  0.6193814424903  0.7517607942415365  1.0000
  O   O48       1.0  0.5664170719434525  0.3806185578210737  0.2517607939429689  1.0000
  O   O49       1.0  0.09424050519700229  0.01465643172280962  0.3536677017526801  1.0000
  O   O50       1.0  0.40575949487983687  0.9853435680915914  0.8536677016003398  1.0000
  O   O51       1.0  0.5942405052738414  0.48534356818439084  0.6463322983935472  1.0000
  O   O52       1.0  0.905759494956676  0.5146564316300101  0.14633229854588756  1.0000
  S   S1        1.0  0.40512347277574157  0.149498388011416  0.20417871735121065  1.0000
  S   S2        1.0  0.0948765273010976  0.8505016122999577  0.7041787171988704  1.0000
  S   S3        1.0  0.9051234728525808  0.35050161189578455  0.7958212827950166  1.0000
  S   S4        1.0  0.5948765273779367  0.6494983879186165  0.29582128294735693  1.0000
  S   S5        1.0  0.0036960659478517837  0.005131893875413276  0.09899776363075469  1.0000
  S   S6        1.0  0.4963039341289874  0.9948681064359605  0.5989977639293224  1.0000
  S   S7        1.0  0.5036960642709454  0.49486810603178716  0.9010022360645648  1.0000
  S   S8        1.0  0.9963039342058265  0.5051318937826138  0.401002236216905  1.0000
  S   S9        1.0  0.1441629045978643  0.7870562081842515  0.09138961212283636  1.0000
  S   S10       1.0  0.35583709547897485  0.21294379212712225  0.5913896119704961  1.0000
  S   S11       1.0  0.6441629046747034  0.7129437920343228  0.908610388023391  1.0000
  S   S12       1.0  0.855837095555814  0.28705620778007823  0.40861038817573125  1.0000
  S   S13       1.0  0.18804074136026103  0.03659323797960845  0.4147560234986883  1.0000
  S   S14       1.0  0.31195925871657815  0.9634067618347926  0.9147560237972558  1.0000
  S   S15       1.0  0.6880407414371001  0.463406761927592  0.5852439761966312  1.0000
  S   S16       1.0  0.8119592587934173  0.5365932378868089  0.08524397634897142  1.0000
