data_image0
_chemical_formula_structural       H12C12N6O6
_chemical_formula_sum              "H12 C12 N6 O6"
_cell_length_a       4.008489186055298
_cell_length_b       6.164720339902204
_cell_length_c       13.45622123462943
_cell_angle_alpha    93.72038764208338
_cell_angle_beta     97.31752092894197
_cell_angle_gamma    88.67848340819316

_space_group_name_H-M_alt    "P 1"
_space_group_IT_number       1

loop_
  _space_group_symop_operation_xyz
  'x, y, z'

loop_
  _atom_site_type_symbol
  _atom_site_label
  _atom_site_symmetry_multiplicity
  _atom_site_fract_x
  _atom_site_fract_y
  _atom_site_fract_z
  _atom_site_occupancy
  H   H1        1.0  0.403872583406132  0.15793325805996414  0.652969966550905  1.0000
  H   H2        1.0  0.596127417261554  0.842066743274939  0.34703003379982517  1.0000
  H   H3        1.0  0.043894819147862967  0.4342677215005172  0.7429006608317812  1.0000
  H   H4        1.0  0.956105181599156  0.5657322782097437  0.2570993394980371  1.0000
  H   H5        1.0  0.7632215915068857  0.30111560319410136  0.9860077727033444  1.0000
  H   H6        1.0  0.23677840896950325  0.6988843980855647  0.013992226897946719  1.0000
  H   H7        1.0  0.7360538878270251  0.49402022037905996  0.8939073545919093  1.0000
  H   H8        1.0  0.26394611264936385  0.505979780900606  0.10609264500938169  1.0000
  H   H9        1.0  0.5603714615098764  0.8286324453102523  0.7242555007720674  1.0000
  H   H10       1.0  0.4396285392371426  0.1713675544000085  0.2757444995577508  1.0000
  H   H11       1.0  0.15176868817911218  0.6957505557858449  0.4554595408684572  1.0000
  H   H12       1.0  0.8482313124885741  0.3042494455490583  0.544540459482273  1.0000
  C   C1        1.0  0.13346473062610004  0.2833753850702451  0.7757640733282275  1.0000
  C   C2        1.0  0.8665352674226895  0.716624614561971  0.22423592621363608  1.0000
  C   C3        1.0  0.3231587120056946  0.1338422568274651  0.725676318037844  1.0000
  C   C4        1.0  0.6768412885500271  0.8661577428275588  0.27432368154253517  1.0000
  C   C5        1.0  0.33241110675993235  0.8911325520263861  0.8580388166466457  1.0000
  C   C6        1.0  0.6675888937957893  0.10886744762863775  0.1419611829337334  1.0000
  C   C7        1.0  0.04135370594753327  0.22242000370813458  0.869555114275028  1.0000
  C   C8        1.0  0.9586462947994856  0.7775799960021262  0.1304448860547903  1.0000
  C   C9        1.0  0.8543675049241075  0.7433694690010122  0.5813381845159818  1.0000
  C   C10       1.0  0.14563249312468216  0.2566305306312039  0.4186618150258817  1.0000
  C   C11       1.0  0.015360857073759561  0.6082158405178363  0.5048252840702482  1.0000
  C   C12       1.0  0.9846391436732594  0.39178415919242454  0.49517471625957005  1.0000
  N   N1        1.0  0.14603884988209506  0.03396950301229248  0.9079603014056867  1.0000
  N   N2        1.0  0.853961150785591  0.9660304983226108  0.09203969894504344  1.0000
  N   N3        1.0  0.42201588923038275  0.9451300023631446  0.7656279504036332  1.0000
  N   N4        1.0  0.5779841115166362  0.05486999734711622  0.23437204992618513  1.0000
  N   N5        1.0  0.8395221366313986  0.35110062579391127  0.9205663887767729  1.0000
  N   N6        1.0  0.16047786152935553  0.6488993755181842  0.0794336115354416  1.0000
  O   O1        1.0  0.42554557827773254  0.7102444912876617  0.8910874021145377  1.0000
  O   O2        1.0  0.5744544222779893  0.2897555083673622  0.10891259746584146  1.0000
  O   O3        1.0  0.749442316795089  0.6556148113453015  0.655164643591398  1.0000
  O   O4        1.0  0.25055768395192995  0.34438518836495924  0.34483535673842014  1.0000
  O   O5        1.0  0.8216917479022652  0.9460604858312762  0.5710949112315994  1.0000
  O   O6        1.0  0.17830825284475377  0.0539395138789847  0.42890508909821884  1.0000
