data_image0
_chemical_formula_structural       H72C76P4I22
_chemical_formula_sum              "H72 C76 P4 I22"
_cell_length_a       10.054559887741885
_cell_length_b       13.070487301555255
_cell_length_c       20.032082306323918
_cell_angle_alpha    89.10271556500317
_cell_angle_beta     77.83239503304952
_cell_angle_gamma    75.7473833490767

_space_group_name_H-M_alt    "P 1"
_space_group_IT_number       1

loop_
  _space_group_symop_operation_xyz
  'x, y, z'

loop_
  _atom_site_type_symbol
  _atom_site_label
  _atom_site_symmetry_multiplicity
  _atom_site_fract_x
  _atom_site_fract_y
  _atom_site_fract_z
  _atom_site_occupancy
  H   H1        1.0  0.7458816557478177  0.14325857323923852  0.04504915166291661  1.0000
  H   H2        1.0  0.2541183442319228  0.8567414266976752  0.9549508483082711  1.0000
  H   H3        1.0  0.6745507980528821  0.089086633822672  0.16416380869335956  1.0000
  H   H4        1.0  0.3254492019268584  0.9109133661142417  0.8358361912778283  1.0000
  H   H5        1.0  0.7921504171806047  0.13137656845243822  0.2542197650225932  1.0000
  H   H6        1.0  0.20784958279913554  0.8686234314844754  0.7457802349485947  1.0000
  H   H7        1.0  0.9795217411225596  0.22895151471604513  0.22506239771452555  1.0000
  H   H8        1.0  0.02047825885718092  0.7710484852208684  0.7749376022566623  1.0000
  H   H9        1.0  0.04995766446014604  0.2838385270222363  0.10760913992155592  1.0000
  H   H10       1.0  0.9500423355195945  0.7161614729146775  0.8923908600496319  1.0000
  H   H11       1.0  0.02205533152976301  0.060791401008992274  0.8957113162695317  1.0000
  H   H12       1.0  0.9779446684499775  0.9392085989279213  0.10428868370165605  1.0000
  H   H13       1.0  0.8901706977004655  0.008036968277604334  0.8156845087101491  1.0000
  H   H14       1.0  0.10982930202688641  0.9919630324488562  0.18431549126412575  1.0000
  H   H15       1.0  0.6694808106129323  0.12787431493487741  0.7988029450605264  1.0000
  H   H16       1.0  0.33051918936680796  0.8721256850020364  0.2011970549106615  1.0000
  H   H17       1.0  0.574518872356126  0.3027729951092014  0.8631935911095308  1.0000
  H   H18       1.0  0.4254811276236146  0.6972270048277122  0.13680640886165718  1.0000
  H   H19       1.0  0.7020986186216376  0.35554700559406466  0.9437422772559019  1.0000
  H   H20       1.0  0.2979013813581028  0.6444529943428491  0.056257722715286076  1.0000
  H   H21       1.0  0.14246266173408373  0.070854384702429  0.04103924588600946  1.0000
  H   H22       1.0  0.8575373382456567  0.9291456152344846  0.9589607540851783  1.0000
  H   H23       1.0  0.388842402597355  0.9694511309086902  0.9992727777044081  1.0000
  H   H24       1.0  0.6111575983776368  0.030548869026922797  0.0007272222661524664  1.0000
  H   H25       1.0  0.5323136397354893  0.019305120600870508  0.8926775548348477  1.0000
  H   H26       1.0  0.46768636024425125  0.9806948793360432  0.10732244513634008  1.0000
  H   H27       1.0  0.4268267208539075  0.16992189873964908  0.826486710233804  1.0000
  H   H28       1.0  0.5731732801210843  0.8300781011959639  0.1735132897367567  1.0000
  H   H29       1.0  0.18176863400851162  0.2695898333293651  0.8665959718778856  1.0000
  H   H30       1.0  0.8182313669664801  0.7304101666062479  0.13340402809267493  1.0000
  H   H31       1.0  0.995026776916361  0.407213763835153  0.9262102905930598  1.0000
  H   H32       1.0  0.004973223063379563  0.5927862361017606  0.07378970937812811  1.0000
  H   H33       1.0  0.02006135296010876  0.4056675774577552  0.012284266772952857  1.0000
  H   H34       1.0  0.9799386470196318  0.5943324224791584  0.9877157331982349  1.0000
  H   H35       1.0  0.8456594749633394  0.4323221128276928  0.996890380020104  1.0000
  H   H36       1.0  0.15434052501640136  0.5676778871092208  0.003109619951083794  1.0000
  H   H37       1.0  0.2759582033576222  0.5423986456022324  0.47382923397605897  1.0000
  H   H38       1.0  0.7240417976173694  0.4576013543333806  0.5261707659945016  1.0000
  H   H39       1.0  0.09215222503696384  0.515536208856746  0.5716147747054832  1.0000
  H   H40       1.0  0.9078477749427768  0.4844637910801675  0.42838522526570466  1.0000
  H   H41       1.0  0.037612703097206684  0.3394047679676096  0.5866335318576246  1.0000
  H   H42       1.0  0.9623872968825338  0.6605952319693039  0.4133664681135633  1.0000
  H   H43       1.0  0.16588347566057285  0.19126734462483932  0.5027909616575743  1.0000
  H   H44       1.0  0.8341165243191676  0.8087326553120743  0.49720903831361346  1.0000
  H   H45       1.0  0.3475713616847527  0.21667699531741075  0.4046374775613278  1.0000
  H   H46       1.0  0.6524286382949879  0.7833230046195029  0.59536252240986  1.0000
  H   H47       1.0  0.6324491886255438  0.544005650113939  0.39165841697407056  1.0000
  H   H48       1.0  0.3675508113541965  0.45599434982297465  0.6083415829971174  1.0000
  H   H49       1.0  0.6088500381386437  0.7342752777673643  0.369037574418295  1.0000
  H   H50       1.0  0.39114996184109674  0.26572472216954934  0.6309624255528928  1.0000
  H   H51       1.0  0.4144494623562151  0.8338989782826572  0.31729995139774175  1.0000
  H   H52       1.0  0.5855505376235252  0.16610102165425641  0.6827000485734461  1.0000
  H   H53       1.0  0.23998993665995294  0.7435444080696264  0.28891927306979376  1.0000
  H   H54       1.0  0.7600100633197875  0.2564555918672872  0.7110807269013941  1.0000
  H   H55       1.0  0.2634286526395  0.5540451988242411  0.3099417561995231  1.0000
  H   H56       1.0  0.7365713473402404  0.44595480111267255  0.6900582437716647  1.0000
  H   H57       1.0  0.5310430141091032  0.30588020535760185  0.49259329011960057  1.0000
  H   H58       1.0  0.46895698587063744  0.6941197945793117  0.5074067098515873  1.0000
  H   H59       1.0  0.7565909936252546  0.22865732555889864  0.5260090819484797  1.0000
  H   H60       1.0  0.2434090063544859  0.771342674378015  0.4739909180227081  1.0000
  H   H61       1.0  0.9827840669772717  0.2173885632144224  0.4425094607549077  1.0000
  H   H62       1.0  0.017215933002468826  0.7826114367224913  0.5574905392162801  1.0000
  H   H63       1.0  0.9820576863924572  0.29144753927581135  0.32770993920049585  1.0000
  H   H64       1.0  0.01794231336575398  0.708552460686541  0.6722900612817274  1.0000
  H   H65       1.0  0.7567547595225893  0.37158159485394887  0.2937755302762819  1.0000
  H   H66       1.0  0.24324524023562175  0.6284184051084035  0.7062244702059415  1.0000
  H   H67       1.0  0.36627259187594713  0.37002327354141906  0.27179879630990844  1.0000
  H   H68       1.0  0.6337274081037935  0.6299767263954945  0.7282012036612794  1.0000
  H   H69       1.0  0.47159673090556437  0.24991134648543775  0.29621176504627766  1.0000
  H   H70       1.0  0.5284032690741759  0.750088653451476  0.7037882349249102  1.0000
  H   H71       1.0  0.5533316141957987  0.34440570411098664  0.24878006162510966  1.0000
  H   H72       1.0  0.44666838578394186  0.655594295825927  0.7512199383460781  1.0000
  C   C1        1.0  0.9024150329883558  0.2161154894578911  0.0687220312281401  1.0000
  C   C2        1.0  0.0975849667698556  0.7838845105044612  0.9312779692540832  1.0000
  C   C3        1.0  0.7965032056999999  0.16167132056516254  0.08471618514146662  1.0000
  C   C4        1.0  0.2034967942797404  0.8383286793717512  0.9152838148297212  1.0000
  C   C5        1.0  0.756432883885515  0.13183942229581605  0.15163745691191632  1.0000
  C   C6        1.0  0.24356711609422563  0.8681605776410976  0.8483625430592715  1.0000
  C   C7        1.0  0.8220975982124717  0.15610678561072333  0.20212118818187383  1.0000
  C   C8        1.0  0.1779024017672686  0.8438932143261904  0.7978788117893141  1.0000
  C   C9        1.0  0.9271042317059902  0.2108425746026518  0.1860480490080017  1.0000
  C   C10       1.0  0.07289576827375022  0.7891574253342618  0.8139519509631861  1.0000
  C   C11       1.0  0.9672067016956003  0.24168872822602255  0.11956389038660163  1.0000
  C   C12       1.0  0.03279329828414002  0.7583112717108912  0.8804361095845862  1.0000
  C   C13       1.0  0.8697538738412731  0.21080717722918688  0.9253975302754349  1.0000
  C   C14       1.0  0.1302461258860789  0.7891928234972737  0.07460246969883993  1.0000
  C   C15       1.0  0.922730300037825  0.11265708951176982  0.8895646397711292  1.0000
  C   C16       1.0  0.07726969994191538  0.8873429104251438  0.11043536020005859  1.0000
  C   C17       1.0  0.8492141509518718  0.08332658358377174  0.8444410363474113  1.0000
  C   C18       1.0  0.15078585002311995  0.9166734163518412  0.1555589636231492  1.0000
  C   C19       1.0  0.7245469812791874  0.15172376213861394  0.8349498151569643  1.0000
  C   C20       1.0  0.2754530187005531  0.8482762377982999  0.1650501848142236  1.0000
  C   C21       1.0  0.6718096441072253  0.24922105502477476  0.8705909443232078  1.0000
  C   C22       1.0  0.3281903558725152  0.7507789449121389  0.12940905564798003  1.0000
  C   C23       1.0  0.7440341430044396  0.27930587556427905  0.916070136749767  1.0000
  C   C24       1.0  0.2559658569753008  0.7206941243726347  0.08392986322142088  1.0000
  C   C25       1.0  0.14617082018313302  0.1767828209822653  0.9566219983011219  1.0000
  C   C26       1.0  0.8538291797966074  0.8232171789546483  0.04337800167006597  1.0000
  C   C27       1.0  0.20448270703391247  0.0921749527779946  0.9939874710989012  1.0000
  C   C28       1.0  0.7955172929458281  0.907825047158919  0.006012528872286673  1.0000
  C   C29       1.0  0.34344063484750254  0.03576970887022393  0.9705954313029683  1.0000
  C   C30       1.0  0.6565593648798496  0.9642302918562367  0.029404568671306558  1.0000
  C   C31       1.0  0.42381689988145216  0.06373965245311954  0.9106868068154823  1.0000
  C   C32       1.0  0.5761831000982884  0.9362603474837943  0.0893131931557056  1.0000
  C   C33       1.0  0.3652726612083336  0.14772302885013627  0.8734750043058621  1.0000
  C   C34       1.0  0.6347273387714069  0.8522769710867775  0.1265249956653257  1.0000
  C   C35       1.0  0.2265484162727359  0.2043733813394715  0.896109807481668  1.0000
  C   C36       1.0  0.7734515837070047  0.7956266185974421  0.10389019248952  1.0000
  C   C37       1.0  0.9549591885403057  0.3873587345345529  0.9788288366476245  1.0000
  C   C38       1.0  0.04504081143943471  0.6126412654023607  0.021171163323563284  1.0000
  C   C39       1.0  0.32381843564699  0.3817220884322262  0.43289422082330903  1.0000
  C   C40       1.0  0.6761815643327506  0.6182779115046875  0.5671057791478787  1.0000
  C   C41       1.0  0.2514975003289736  0.4656531321040004  0.4800635468589089  1.0000
  C   C42       1.0  0.7485024996507668  0.5343468678329133  0.5199364531122791  1.0000
  C   C43       1.0  0.14810318560947847  0.4503343382742419  0.5350447328416839  1.0000
  C   C44       1.0  0.8518968143702619  0.5496656616626717  0.4649552671295041  1.0000
  C   C45       1.0  0.11715903687747778  0.3517932084374686  0.5431623796236694  1.0000
  C   C46       1.0  0.8828409631022626  0.6482067914994452  0.4568376203475183  1.0000
  C   C47       1.0  0.188908075375694  0.26853719709024954  0.4961365129176011  1.0000
  C   C48       1.0  0.8110919243516582  0.731462803636211  0.5038634870566737  1.0000
  C   C49       1.0  0.292136169449193  0.28271155965889405  0.4407413606509605  1.0000
  C   C50       1.0  0.7078638305305474  0.7172884402780197  0.5592586393202273  1.0000
  C   C51       1.0  0.4497259938845177  0.5369519649373763  0.3524093463586836  1.0000
  C   C52       1.0  0.5502740060952228  0.46304803499953723  0.6475906536125042  1.0000
  C   C53       1.0  0.5465482699498765  0.5877333364410062  0.369293941096046  1.0000
  C   C54       1.0  0.45345173002986383  0.41226666349590735  0.6307060588751419  1.0000
  C   C55       1.0  0.5334911411121812  0.6944755754205608  0.35630264065141193  1.0000
  C   C56       1.0  0.4665088588675594  0.30552442451635275  0.6436973593197759  1.0000
  C   C57       1.0  0.4242877321919421  0.7502371388319774  0.3269118826419448  1.0000
  C   C58       1.0  0.5757122677877983  0.24976286110493615  0.673088117329243  1.0000
  C   C59       1.0  0.32656844977886973  0.6998843369419063  0.31096865247212263  1.0000
  C   C60       1.0  0.6734315502008709  0.3001156629950072  0.6890313474990652  1.0000
  C   C61       1.0  0.33889861995882753  0.593196352644058  0.32338982735861715  1.0000
  C   C62       1.0  0.661101380020913  0.4068036472928556  0.6766101726125707  1.0000
  C   C63       1.0  0.6290780314828414  0.3426237117963689  0.39105630074358144  1.0000
  C   C64       1.0  0.370921968496899  0.6573762881405446  0.6089436992276064  1.0000
  C   C65       1.0  0.6294718444781039  0.3032632961724417  0.45652908960230687  1.0000
  C   C66       1.0  0.3705281555016365  0.6967367037644719  0.543470910368881  1.0000
  C   C67       1.0  0.7570025828334717  0.2597802136769916  0.47521032225731896  1.0000
  C   C68       1.0  0.2429974171462687  0.7402197862599221  0.5247896777138689  1.0000
  C   C69       1.0  0.8832842993642663  0.25411277621258277  0.4285527427318589  1.0000
  C   C70       1.0  0.11671570061547404  0.7458872237243309  0.571447257239329  1.0000
  C   C71       1.0  0.8828870977436027  0.29445037775272703  0.36355052217687317  1.0000
  C   C72       1.0  0.11711290223613761  0.7055496221841865  0.6364494777943147  1.0000
  C   C73       1.0  0.7562926078312092  0.33917934067810196  0.3443938566673822  1.0000
  C   C74       1.0  0.24370739214853124  0.6608206592588117  0.6556061433038056  1.0000
  C   C75       1.0  0.46432232159204245  0.3341875556278491  0.2883184912490685  1.0000
  C   C76       1.0  0.5356776783876981  0.6658124443090645  0.7116815087221193  1.0000
  P   P1        1.0  0.9657617180236344  0.24840673073509145  0.9826049967322421  1.0000
  P   P2        1.0  0.034238281956106065  0.7515932692018221  0.017395003238945786  1.0000
  P   P3        1.0  0.4660267353395025  0.3989483575666036  0.36615882593995347  1.0000
  P   P4        1.0  0.5339732643878495  0.6010516431598569  0.6338411740343214  1.0000
  I   I1        1.0  0.8869889688675134  0.5517970649304695  0.7810251741975358  1.0000
  I   I2        1.0  0.11301103111222698  0.448202935006444  0.2189748257736521  1.0000
  I   I3        1.0  0.04969082210478106  0.3424617017422287  0.7459455536303595  1.0000
  I   I4        1.0  0.9503091778749594  0.6575382981946848  0.25405444634082835  1.0000
  I   I5        1.0  0.21856405098781403  0.1045280743016017  0.7176859687392705  1.0000
  I   I6        1.0  0.7814359489919266  0.8954719256353119  0.2823140312319174  1.0000
  I   I7        1.0  0.006780204705995819  0.056111265503753144  0.641029768881865  1.0000
  I   I8        1.0  0.9932197952737447  0.9438887344331606  0.35897023108932274  1.0000
  I   I9        1.0  0.8103368603505903  0.011324234152474088  0.5707569912351396  1.0000
  I   I10       1.0  0.18966313915523283  0.9886757665994251  0.4292430092501706  1.0000
  I   I11       1.0  0.41999161794665785  0.029740846483921335  0.5660098413612791  1.0000
  I   I12       1.0  0.5800083820330827  0.9702591534529924  0.43399015860990875  1.0000
  I   I13       1.0  0.6394095985038368  0.6588567735429295  0.9740668849236283  1.0000
  I   I14       1.0  0.36059040147590393  0.34114322639398403  0.025933115047559487  1.0000
  I   I15       1.0  0.46345608570844044  0.5590635916145242  0.9015585622158643  1.0000
  I   I16       1.0  0.5365439142712999  0.44093640832238934  0.09844143775532357  1.0000
  I   I17       1.0  0.29489472201198796  0.4722817663640031  0.8307245643747669  1.0000
  I   I18       1.0  0.7051052779677527  0.5277182335729106  0.16927543559642078  1.0000
  I   I19       1.0  0.6624434209488002  0.7974186502141147  0.8466427373430845  1.0000
  I   I20       1.0  0.3375565790309403  0.20258134972279884  0.1533572626281034  1.0000
  I   I21       1.0  0.689527815517517  0.9107204477154308  0.7236404313374566  1.0000
  I   I22       1.0  0.3104721844622237  0.08927955222148268  0.27635956863373123  1.0000
