data_image0
_chemical_formula_structural       H96C96N8O32
_chemical_formula_sum              "H96 C96 N8 O32"
_cell_length_a       7.14707480028799
_cell_length_b       28.208718028386606
_cell_length_c       10.969259343786232
_cell_angle_alpha    90.0
_cell_angle_beta     99.01973828378796
_cell_angle_gamma    90.0

_space_group_name_H-M_alt    "P 1"
_space_group_IT_number       1

loop_
  _space_group_symop_operation_xyz
  'x, y, z'

loop_
  _atom_site_type_symbol
  _atom_site_label
  _atom_site_symmetry_multiplicity
  _atom_site_fract_x
  _atom_site_fract_y
  _atom_site_fract_z
  _atom_site_occupancy
  H   H1        1.0  0.9779513691431879  0.34693963263951105  0.4377331280390924  1.0000
  H   H2        1.0  0.5220486300203543  0.8469396328453587  0.5622668713434014  1.0000
  H   H3        1.0  0.022048630751888215  0.653060367417684  0.5622668716637559  1.0000
  H   H4        1.0  0.47795136987472187  0.1530603672118363  0.4377331283594469  1.0000
  H   H5        1.0  0.7566763777635741  0.3331349117157125  0.34214125354505204  1.0000
  H   H6        1.0  0.7433236213999681  0.8331349115670599  0.657858745837442  1.0000
  H   H7        1.0  0.24332362213150202  0.6668650883414824  0.6578587461577963  1.0000
  H   H8        1.0  0.25667637849510805  0.16686508813563478  0.34214125386540645  1.0000
  H   H9        1.0  0.14287037362584445  0.34999836256524436  0.25995116991281636  1.0000
  H   H10       1.0  0.35712962700076567  0.8499983624165918  0.7400488301103865  1.0000
  H   H11       1.0  0.8571296262692316  0.6500016374919506  0.740048829790032  1.0000
  H   H12       1.0  0.6428703728943104  0.15000163764060329  0.2599511695924619  1.0000
  H   H13       1.0  0.7923435648395212  0.30321351900475585  0.11529538893527892  1.0000
  H   H14       1.0  0.7076564343390727  0.8032135192106035  0.8847046113603396  1.0000
  H   H15       1.0  0.207656435055555  0.6967864810524391  0.8847046107675692  1.0000
  H   H16       1.0  0.29234356557105506  0.19678648084659145  0.11529538925563337  1.0000
  H   H17       1.0  0.20803976063228627  0.2977506617474736  0.08148431454861428  1.0000
  H   H18       1.0  0.2919602385777117  0.7977506615988209  0.918515685339571  1.0000
  H   H19       1.0  0.7919602392627899  0.7022493383097212  0.918515685154234  1.0000
  H   H20       1.0  0.708039761332416  0.20224933845837403  0.08148431527640193  1.0000
  H   H21       1.0  0.09504192670320984  0.35893141226095976  0.9027959030452762  1.0000
  H   H22       1.0  0.4049580725067881  0.8589314121123072  0.09720409684290916  1.0000
  H   H23       1.0  0.9049580731918663  0.6410685877962352  0.09720409665757222  1.0000
  H   H24       1.0  0.595041927388288  0.14106858759038754  0.9027959028599393  1.0000
  H   H25       1.0  0.9828501299675878  0.42716494021012363  0.996830241087709  1.0000
  H   H26       1.0  0.5171498691959542  0.927164940061471  0.003169758294784767  1.0000
  H   H27       1.0  0.01714986992748823  0.5728350598470713  0.0031697586151392177  1.0000
  H   H28       1.0  0.4828501306991218  0.07283505999572401  0.9968302414080634  1.0000
  H   H29       1.0  0.9970836027086669  0.4234844638447843  0.22105278197639772  1.0000
  H   H30       1.0  0.5029163978714873  0.9234844640506319  0.7789472175411137  1.0000
  H   H31       1.0  0.00291639718640919  0.5765155358579104  0.7789472177264507  1.0000
  H   H32       1.0  0.4970836020235888  0.07651553600656306  0.22105278216173466  1.0000
  H   H33       1.0  0.997855177869992  0.2324810171593283  0.9870099779233109  1.0000
  H   H34       1.0  0.5021448227252138  0.7324810170106756  0.012990022507325203  1.0000
  H   H35       1.0  0.0021448220250839894  0.7675189828978666  0.012990021779537547  1.0000
  H   H36       1.0  0.49785517718491396  0.26751898304651933  0.9870099781086479  1.0000
  H   H37       1.0  0.8379988352735005  0.2746252921598323  0.9080634059098598  1.0000
  H   H38       1.0  0.6620011653217052  0.77462529236568  0.09193659452077617  1.0000
  H   H39       1.0  0.16200116462157557  0.7253747075428623  0.0919365937929885  1.0000
  H   H40       1.0  0.3379988345884224  0.225374707691515  0.9080634060951968  1.0000
  H   H41       1.0  0.06897239280739932  0.2688747146313973  0.8705304897452742  1.0000
  H   H42       1.0  0.4310276078192108  0.7688747148372449  0.12946951027792858  1.0000
  H   H43       1.0  0.9310276070876767  0.7311252854257977  0.12946950995757414  1.0000
  H   H44       1.0  0.5689723920909168  0.23112528521995002  0.8705304903380442  1.0000
  H   H45       1.0  0.6228219765655622  0.3727260831002519  0.14376579378864335  1.0000
  H   H46       1.0  0.8771780240296436  0.8727260829515993  0.8562342066419927  1.0000
  H   H47       1.0  0.3771780233445655  0.6272739169569431  0.8562342068273295  1.0000
  H   H48       1.0  0.12282197728204458  0.12727391675109537  0.14376579319587318  1.0000
  H   H49       1.0  0.4859725426009934  0.4514954978522447  0.08286462927015306  1.0000
  H   H50       1.0  0.014027458025616685  0.951495497703592  0.9171353707530496  1.0000
  H   H51       1.0  0.5140274572940827  0.5485045022049503  0.9171353704326953  1.0000
  H   H52       1.0  0.9859725418694595  0.04850450199910261  0.08286462894979862  1.0000
  H   H53       1.0  0.7190592914493323  0.47713073654945537  0.09864155647308057  1.0000
  H   H54       1.0  0.7809407091308219  0.9771307367553029  0.9013584430444309  1.0000
  H   H55       1.0  0.2809407084457437  0.5228692631532393  0.9013584432297677  1.0000
  H   H56       1.0  0.2190592907642542  0.022869263301891964  0.0986415566584175  1.0000
  H   H57       1.0  0.6452288522140165  0.4343468862239811  0.9821539042255736  1.0000
  H   H58       1.0  0.8547711483811893  0.9343468860753283  0.017846096205062337  1.0000
  H   H59       1.0  0.3547711476810596  0.5656531138332138  0.01784609547727469  1.0000
  H   H60       1.0  0.14522885152893836  0.06565311398186657  0.9821539044109105  1.0000
  H   H61       1.0  0.24452307064160628  0.4012507866755892  0.4599299624303856  1.0000
  H   H62       1.0  0.2554769285683917  0.9012507865269365  0.5400700374577997  1.0000
  H   H63       1.0  0.7554769292534699  0.5987492133816057  0.5400700372724627  1.0000
  H   H64       1.0  0.7445230713266844  0.09874921353025845  0.4599299622450487  1.0000
  H   H65       1.0  0.5126322179489236  0.4683370749675863  0.7962143367187416  1.0000
  H   H66       1.0  0.9873677812146187  0.9683370748189336  0.20378566266375223  1.0000
  H   H67       1.0  0.48736778194615255  0.5316629250896087  0.20378566298410666  1.0000
  H   H68       1.0  0.012632218680457528  0.03166292523826134  0.796214337039096  1.0000
  H   H69       1.0  0.8043581250279243  0.4611323430901758  0.48081442408578995  1.0000
  H   H70       1.0  0.6956418755522299  0.9611323429415232  0.5191855754317214  1.0000
  H   H71       1.0  0.1956418762837639  0.5388676569670191  0.5191855757520758  1.0000
  H   H72       1.0  0.3043581243428462  0.0388676571156718  0.4808144242711268  1.0000
  H   H73       1.0  0.17710588176495057  0.6619711601643467  0.3680729479831605  1.0000
  H   H74       1.0  0.32289411744504737  0.16197115995849898  0.6319270519050247  1.0000
  H   H75       1.0  0.8228941181301254  0.3380288398928484  0.6319270517196878  1.0000
  H   H76       1.0  0.6771058824650802  0.8380288400986959  0.36807294871094814  1.0000
  H   H77       1.0  0.2780280741892881  0.6404480966423165  0.16898989006413492  1.0000
  H   H78       1.0  0.22197192643732197  0.14044809643646888  0.8310101099590679  1.0000
  H   H79       1.0  0.7219719257208396  0.3595519034148784  0.831010110551838  1.0000
  H   H80       1.0  0.7780280734577542  0.8595519032662258  0.16898988974378046  1.0000
  H   H81       1.0  0.6041905569733453  0.6594472099469579  0.131741766685494  1.0000
  H   H82       1.0  0.8958094436218605  0.1594472100956107  0.868258233745142  1.0000
  H   H83       1.0  0.39580944293678233  0.3405527901102369  0.868258233930479  1.0000
  H   H84       1.0  0.10419055627321565  0.8405527899615842  0.13174176595770634  1.0000
  H   H85       1.0  0.8300396381723142  0.7005603547851225  0.2949813825164557  1.0000
  H   H86       1.0  0.6699603624228916  0.20056035457927485  0.7050186179141803  1.0000
  H   H87       1.0  0.16996036173781348  0.29943964527207245  0.7050186180995172  1.0000
  H   H88       1.0  0.33003963747218446  0.7994396451234198  0.29498138178866806  1.0000
  H   H89       1.0  0.7287304767694388  0.7215402085808339  0.49465796558933894  1.0000
  H   H90       1.0  0.7712695224091549  0.2215402087294866  0.5053420347062795  1.0000
  H   H91       1.0  0.2712695231406889  0.2784597914763611  0.505342035026634  1.0000
  H   H92       1.0  0.22873047748592112  0.7784597913277084  0.4946579649965687  1.0000
  H   H93       1.0  0.4055822305579081  0.7025723707137757  0.5319994825935448  1.0000
  H   H94       1.0  0.09441777006870197  0.20257237086242835  0.468000517429658  1.0000
  H   H95       1.0  0.5944177693371681  0.2974276293434193  0.46800051710930357  1.0000
  H   H96       1.0  0.9055822298414258  0.7974276291947666  0.531999483186315  1.0000
  C   C1        1.0  0.9786567199314102  0.26389520900981434  0.24340277021029666  1.0000
  C   C2        1.0  0.521343279232132  0.7638952088611617  0.7565972291721972  1.0000
  C   C3        1.0  0.02134327996366587  0.7361047910473806  0.7565972294925517  1.0000
  C   C4        1.0  0.47865672066294424  0.23610479119603334  0.24340277053065112  1.0000
  C   C5        1.0  0.9113164843585652  0.33083657862823374  0.3508754031347034  1.0000
  C   C6        1.0  0.5886835162366406  0.8308365784795811  0.6491245972959326  1.0000
  C   C7        1.0  0.08868351555156244  0.6691634214289611  0.6491245974812695  1.0000
  C   C8        1.0  0.41131648365843554  0.16916342157761388  0.35087540240691567  1.0000
  C   C9        1.0  0.9877638288375254  0.3474595307782794  0.23616272306237235  1.0000
  C   C10       1.0  0.5122361703260166  0.8474595309841271  0.7638372763201215  1.0000
  C   C11       1.0  0.012236171057550689  0.6525404689244152  0.763837276640476  1.0000
  C   C12       1.0  0.48776382956905934  0.1525404690730679  0.2361627233827268  1.0000
  C   C13       1.0  0.9457175992660511  0.30430929655724487  0.1521891237709524  1.0000
  C   C14       1.0  0.5542824013141031  0.8043092964085922  0.847810875746559  1.0000
  C   C15       1.0  0.05428240062902491  0.6956907034999501  0.847810875931896  1.0000
  C   C16       1.0  0.44571759858097304  0.19569070364860275  0.1521891239562894  1.0000
  C   C17       1.0  0.057717360832745875  0.30522304385955273  0.044961656506944024  1.0000
  C   C18       1.0  0.44228263837725207  0.8052230440654004  0.9550383433812412  1.0000
  C   C19       1.0  0.9422826390773819  0.6947769561976422  0.955038344109029  1.0000
  C   C20       1.0  0.557717361517824  0.1947769559917946  0.04496165632160706  1.0000
  C   C21       1.0  0.04658774283810746  0.3546675332757835  0.9918513474893083  1.0000
  C   C22       1.0  0.45341225780355415  0.8546675331271307  0.008148653447019084  1.0000
  C   C23       1.0  0.9534122570720203  0.6453324667814114  0.008148653126664636  1.0000
  C   C24       1.0  0.5465877435231856  0.14533246693006413  0.9918513473039713  1.0000
  C   C25       1.0  0.9829523331036885  0.39313801885077326  0.044162724635890264  1.0000
  C   C26       1.0  0.5170476674915173  0.8931380190566208  0.9558372757947458  1.0000
  C   C27       1.0  0.0170476668064392  0.6068619812064218  0.9558372759800827  1.0000
  C   C28       1.0  0.4829523324035587  0.10686198100057405  0.0441627239081026  1.0000
  C   C29       1.0  0.9222318174550698  0.3937055387920868  0.17005015927849515  1.0000
  C   C30       1.0  0.5777681817084723  0.8937055389979345  0.8299498401039986  1.0000
  C   C31       1.0  0.0777681824400063  0.6062944612651081  0.8299498404243532  1.0000
  C   C32       1.0  0.42223181818660377  0.10629446105926052  0.1700501595988496  1.0000
  C   C33       1.0  0.9868063982211333  0.2681705408373237  0.9469403681097278  1.0000
  C   C34       1.0  0.5131936009574605  0.7681705406886711  0.05305963218589066  1.0000
  C   C35       1.0  0.013193601673942842  0.7318294592198712  0.05305963159312049  1.0000
  C   C36       1.0  0.48680639895266725  0.23182945901402358  0.9469403684300822  1.0000
  C   C37       1.0  0.710730809182321  0.4046698381866484  0.16419131937632914  1.0000
  C   C38       1.0  0.7892691899962726  0.9046698383924962  0.8358086809192894  1.0000
  C   C39       1.0  0.28926919072780666  0.5953301618705465  0.8358086812396437  1.0000
  C   C40       1.0  0.21073080991385504  0.09533016166469885  0.16419131969668357  1.0000
  C   C41       1.0  0.635565088064491  0.4446319176000274  0.07739482364553973  1.0000
  C   C42       1.0  0.8644349110990509  0.9446319174513746  0.9226051757369541  1.0000
  C   C43       1.0  0.36443491183058496  0.5553680824571675  0.9226051760573085  1.0000
  C   C44       1.0  0.1355650887960251  0.05536808260582023  0.0773948239658942  1.0000
  C   C45       1.0  0.5222546860360414  0.41433127582184137  0.3260354579135764  1.0000
  C   C46       1.0  0.9777453131275007  0.9143312756731887  0.6739645414689175  1.0000
  C   C47       1.0  0.47774531385903474  0.5856687242353537  0.673964541789272  1.0000
  C   C48       1.0  0.02225468676757538  0.08566872402950591  0.3260354582339308  1.0000
  C   C49       1.0  0.5249849878051217  0.42935085911427057  0.45690809111335895  1.0000
  C   C50       1.0  0.9750150127750324  0.9293508593201182  0.5430919084041523  1.0000
  C   C51       1.0  0.47501501208995434  0.5706491409429244  0.5430919085894894  1.0000
  C   C52       1.0  0.024984988536655744  0.07064914073707677  0.4569080914337134  1.0000
  C   C53       1.0  0.3651038614986886  0.4196298728672509  0.5116955727386818  1.0000
  C   C54       1.0  0.13489613912792142  0.9196298727185983  0.48830442728452095  1.0000
  C   C55       1.0  0.634896138411439  0.580370127189944  0.48830442787729106  1.0000
  C   C56       1.0  0.8651038607671546  0.0803701273385967  0.5116955724183274  1.0000
  C   C57       1.0  0.3643628034178542  0.43383617673390423  0.6329052882120737  1.0000
  C   C58       1.0  0.13563719579214378  0.9338361769397518  0.3670947116761116  1.0000
  C   C59       1.0  0.6356371964772218  0.5661638229687904  0.3670947114907746  1.0000
  C   C60       1.0  0.8643628041179839  0.06616382311744311  0.6329052889398613  1.0000
  C   C61       1.0  0.5163021408904559  0.45748329991506886  0.7016568238422788  1.0000
  C   C62       1.0  0.9836978596896984  0.9574832997664162  0.29834317567523255  1.0000
  C   C63       1.0  0.48369785900462026  0.542516700142126  0.2983431758605695  1.0000
  C   C64       1.0  0.01630214020537775  0.04251670029077873  0.7016568240276158  1.0000
  C   C65       1.0  0.6712420642000136  0.46709869504671053  0.6435765634762759  1.0000
  C   C66       1.0  0.8287579363951921  0.9670986952525582  0.35642343695435996  1.0000
  C   C67       1.0  0.32875793571011397  0.5329013050104844  0.356423437139697  1.0000
  C   C68       1.0  0.17124206349988394  0.032901304804636766  0.6435765627484883  1.0000
  C   C69       1.0  0.679674466508179  0.45329919555835096  0.5226031111255122  1.0000
  C   C70       1.0  0.8203255326553631  0.9532991954096982  0.4773968882569817  1.0000
  C   C71       1.0  0.3203255333868971  0.546700804498844  0.47739688857733614  1.0000
  C   C72       1.0  0.1796744672397129  0.046700804647496666  0.5226031114458666  1.0000
  C   C73       1.0  0.32057073645316614  0.6701987726267933  0.35262652955696344  1.0000
  C   C74       1.0  0.17942926275683183  0.17019877242094572  0.6473734703312218  1.0000
  C   C75       1.0  0.67942926344191  0.3298012274304016  0.6473734701458849  1.0000
  C   C76       1.0  0.8205707371382442  0.829801227281749  0.3526265293716265  1.0000
  C   C77       1.0  0.3774803948692878  0.65795428531431  0.24054349003772102  1.0000
  C   C78       1.0  0.1225196057573223  0.1579542854629627  0.7594565099854816  1.0000
  C   C79       1.0  0.6225196050257884  0.3420457147428849  0.7594565096651272  1.0000
  C   C80       1.0  0.8774803941377538  0.8420457145942322  0.2405434897173666  1.0000
  C   C81       1.0  0.560822101228853  0.668763481949661  0.2197059332169431  1.0000
  C   C82       1.0  0.9391778993663527  0.1687634817438133  0.7802940672136929  1.0000
  C   C83       1.0  0.4391778986812746  0.331236518107534  0.78029406739903  1.0000
  C   C84       1.0  0.06082210052872334  0.8312365183133816  0.21970593248915546  1.0000
  C   C85       1.0  0.6873609480541194  0.6916433802616125  0.31099105619508094  1.0000
  C   C86       1.0  0.8126390511244742  0.1916433804102652  0.6890089441005375  1.0000
  C   C87       1.0  0.31263905185600827  0.30835661979558243  0.689008944420892  1.0000
  C   C88       1.0  0.18736094877060183  0.8083566196469298  0.3109910556023108  1.0000
  C   C89       1.0  0.6309034264265817  0.7034918166089738  0.42346647562052026  1.0000
  C   C90       1.0  0.8690965741686243  0.20349181675762643  0.5765335248101157  1.0000
  C   C91       1.0  0.3690965734684945  0.2965081834482212  0.576533524082328  1.0000
  C   C92       1.0  0.1309034257415034  0.7965081832995684  0.4234664758058572  1.0000
  C   C93       1.0  0.44756829750239385  0.6927677454301424  0.4441524463042929  1.0000
  C   C94       1.0  0.05243170312421626  0.19276774557879514  0.5558475537189098  1.0000
  C   C95       1.0  0.5524317023926824  0.3072322542725522  0.5558475533985554  1.0000
  C   C96       1.0  0.9475682967708599  0.8072322544783997  0.44415244598393844  1.0000
  N   N1        1.0  0.1980491653578446  0.4235467006326536  0.6919808817426617  1.0000
  N   N2        1.0  0.3019508338521534  0.9235467008385012  0.30801911814552346  1.0000
  N   N3        1.0  0.8019508345372315  0.5764532994245413  0.30801911796018655  1.0000
  N   N4        1.0  0.6980491660579744  0.07645329921869368  0.6919808824704494  1.0000
  N   N5        1.0  0.8322481469819766  0.49299114146221235  0.7125757296723453  1.0000
  N   N6        1.0  0.6677518536132293  0.9929911413135597  0.2874242707582907  1.0000
  N   N7        1.0  0.16775185292815115  0.5070088585949826  0.28742427094362766  1.0000
  N   N8        1.0  0.33224814629689836  0.007008858743635295  0.7125757298576822  1.0000
  O   O1        1.0  0.016125961748971778  0.2223151705685181  0.22731997251648683  1.0000
  O   O2        1.0  0.4838740374610262  0.7223151707743657  0.7726800273716985  1.0000
  O   O3        1.0  0.9838740381611558  0.7776848294886769  0.772680028099486  1.0000
  O   O4        1.0  0.51612596243405  0.27768482928282917  0.2273199723311499  1.0000
  O   O5        1.0  0.9590981457636858  0.2802359388344076  0.3577984125338038  1.0000
  O   O6        1.0  0.54090185483152  0.780235938685755  0.6422015878968322  1.0000
  O   O7        1.0  0.04090185413139028  0.7197640612227874  0.6422015871690445  1.0000
  O   O8        1.0  0.4590981450786077  0.21976406101693968  0.3577984127191407  1.0000
  O   O9        1.0  0.6932889897476255  0.41889091266427314  0.29167170058163944  1.0000
  O   O10       1.0  0.8067110094309681  0.9188909125156204  0.708328299713979  1.0000
  O   O11       1.0  0.3067110101474506  0.5811090873929218  0.7083282991212089  1.0000
  O   O12       1.0  0.19328899047915948  0.0811090875415745  0.29167170090199385  1.0000
  O   O13       1.0  0.3792353296305754  0.40014649650654804  0.26007832790634383  1.0000
  O   O14       1.0  0.1207646709960347  0.9001464967123958  0.739921672116859  1.0000
  O   O15       1.0  0.6207646702645006  0.5998535035506469  0.7399216717965045  1.0000
  O   O16       1.0  0.879235328914093  0.09985350334479923  0.260078328499114  1.0000
  O   O17       1.0  0.05961087187141671  0.4045553948433972  0.6280851883679315  1.0000
  O   O18       1.0  0.44038912875519337  0.9045553946947446  0.37191481165527135  1.0000
  O   O19       1.0  0.9403891280236594  0.5954446052137977  0.3719148113349169  1.0000
  O   O20       1.0  0.5596108711398827  0.09544460536245043  0.628085188047577  1.0000
  O   O21       1.0  0.20582725764064486  0.4344226312471278  0.8019941649323219  1.0000
  O   O22       1.0  0.29417274298596524  0.9344226310984751  0.19800583509088074  1.0000
  O   O23       1.0  0.7941727422544312  0.5655773688100671  0.19800583477052627  1.0000
  O   O24       1.0  0.7058272569091109  0.06557736895871982  0.8019941646119675  1.0000
  O   O25       1.0  0.8399139398291702  0.49694962549851746  0.8255493989223088  1.0000
  O   O26       1.0  0.6600860607509841  0.9969496253498648  0.17445060059520262  1.0000
  O   O27       1.0  0.16008606006590595  0.5030503745586775  0.17445060078053953  1.0000
  O   O28       1.0  0.33991393914409196  0.0030503743528298675  0.8255493991076458  1.0000
  O   O29       1.0  0.9505459472814536  0.5095492778344491  0.6522735618016495  1.0000
  O   O30       1.0  0.5494540532987008  0.009549277628601499  0.3477264377158619  1.0000
  O   O31       1.0  0.04945405261362258  0.4904507222227458  0.3477264379011989  1.0000
  O   O32       1.0  0.4505459480129875  0.9904507224285934  0.6522735621220038  1.0000
