data_image0
_chemical_formula_structural       H62C42N8O6S6I2
_chemical_formula_sum              "H62 C42 N8 O6 S6 I2"
_cell_length_a       6.803407755686118
_cell_length_b       11.36976874247479
_cell_length_c       16.567166843983955
_cell_angle_alpha    84.72113101369168
_cell_angle_beta     84.88656735143674
_cell_angle_gamma    80.454009790692

_space_group_name_H-M_alt    "P 1"
_space_group_IT_number       1

loop_
  _space_group_symop_operation_xyz
  'x, y, z'

loop_
  _atom_site_type_symbol
  _atom_site_label
  _atom_site_symmetry_multiplicity
  _atom_site_fract_x
  _atom_site_fract_y
  _atom_site_fract_z
  _atom_site_occupancy
  H   H1        1.0  0.9672818524247456  0.6810015782854355  0.32197087510099925  1.0000
  H   H2        1.0  0.032718147684828475  0.31899842118195776  0.6780291252932727  1.0000
  H   H3        1.0  0.9016247695015902  0.6528797094591557  0.42895299714161184  1.0000
  H   H4        1.0  0.09837523037716277  0.34712029089996993  0.5710470032534052  1.0000
  H   H5        1.0  0.06790856224912104  0.5397097909688846  0.37485184514539177  1.0000
  H   H6        1.0  0.932091437860453  0.46029020849850866  0.6251481552488803  1.0000
  H   H7        1.0  0.41732933359502294  0.6348574927953795  0.5156129461687392  1.0000
  H   H8        1.0  0.5826706663920309  0.36514250763520145  0.48438705361838336  1.0000
  H   H9        1.0  0.3062042787161174  0.5156509592243587  0.48081368228351123  1.0000
  H   H10       1.0  0.6937957212709365  0.48434904120622246  0.5191863175036113  1.0000
  H   H11       1.0  0.1536909824021734  0.6299353841331148  0.5387270095633927  1.0000
  H   H12       1.0  0.8463090178157014  0.3700646154057338  0.461272990222985  1.0000
  H   H13       1.0  0.929708617190376  0.12008164759251266  0.39874931952445863  1.0000
  H   H14       1.0  0.07029138291919806  0.8799183518748807  0.6012506808698135  1.0000
  H   H15       1.0  0.8220474064414727  0.03135084133646308  0.4810351442860986  1.0000
  H   H16       1.0  0.1779525934372803  0.9686491590226627  0.5189648561089183  1.0000
  H   H17       1.0  0.6597674462718103  0.1388234381321452  0.41955165126471394  1.0000
  H   H18       1.0  0.34023255394606466  0.8611765614067034  0.5804483485216637  1.0000
  H   H19       1.0  0.5378313826085214  0.8392786253270023  0.3647094047348463  1.0000
  H   H20       1.0  0.4621686176093534  0.16072137421184648  0.6352905950515314  1.0000
  H   H21       1.0  0.44570810550232  0.9852315588675934  0.40200378472678805  1.0000
  H   H22       1.0  0.5542918943764331  0.014768441491532263  0.5979962156682289  1.0000
  H   H23       1.0  0.6027466788209029  0.8702636680326976  0.46218929356779215  1.0000
  H   H24       1.0  0.3972533213969719  0.12973633150615108  0.5378107062185855  1.0000
  H   H25       1.0  0.34603367439599697  0.8120051258886151  0.21912474178884364  1.0000
  H   H26       1.0  0.6539663255910568  0.18799487454196603  0.780875257998279  1.0000
  H   H27       1.0  0.10283684661455293  0.8993356291768804  0.2403720421713008  1.0000
  H   H28       1.0  0.897163153372501  0.10066437125370083  0.7596279576158218  1.0000
  H   H29       1.0  0.32300750249091975  0.9373950315763254  0.27844026136088423  1.0000
  H   H30       1.0  0.6769924976186544  0.06260496789106779  0.7215597390333878  1.0000
  H   H31       1.0  0.15693053088188316  0.20251702667107108  0.12774551146346982  1.0000
  H   H32       1.0  0.8430694691051707  0.79748297375951  0.8722544883236528  1.0000
  H   H33       1.0  0.2383476293133994  0.15361065729139833  0.2274702928556538  1.0000
  H   H34       1.0  0.7616523707961745  0.8463893421759949  0.7725297075386183  1.0000
  H   H35       1.0  0.010114938612017248  0.11322212361523658  0.199302876463386  1.0000
  H   H36       1.0  0.9898850613750365  0.8867778768153447  0.8006971233237365  1.0000
  H   H37       1.0  0.6630344502087192  0.20518887716214088  0.236553284153365  1.0000
  H   H38       1.0  0.3369655500091556  0.794811122376708  0.7634467156330126  1.0000
  H   H39       1.0  0.7905715374763407  0.5759792365325442  0.7726726793076644  1.0000
  H   H40       1.0  0.20942846274153423  0.4240207630063044  0.22732732047871332  1.0000
  H   H41       1.0  0.754040221280664  0.35926527199573277  0.7926878309953328  1.0000
  H   H42       1.0  0.24595977870639  0.6407347284348484  0.20731216879178982  1.0000
  H   H43       1.0  0.7299019476794973  0.26155652197925155  0.9332219735709065  1.0000
  H   H44       1.0  0.2700980523075565  0.7384434784513296  0.06677802621621606  1.0000
  H   H45       1.0  0.681218483459703  0.09318114906401141  0.12345839162948877  1.0000
  H   H46       1.0  0.31878151652735104  0.9068188513665696  0.8765416081576338  1.0000
  H   H47       1.0  0.834017407747273  0.13857430461327405  0.037019542098552814  1.0000
  H   H48       1.0  0.16598259236230123  0.861425694854119  0.9629804582957193  1.0000
  H   H49       1.0  0.5661070155442885  0.17350265975603793  0.03776855842878941  1.0000
  H   H50       1.0  0.4338929844427653  0.8264973406745431  0.962231441358333  1.0000
  H   H51       1.0  0.6614932093376624  0.3469672584151804  0.33310154060440367  1.0000
  H   H52       1.0  0.33850679088021246  0.6530327411236683  0.666898459181974  1.0000
  H   H53       1.0  0.5715494835427563  0.4996285503065625  0.30468267043825786  1.0000
  H   H54       1.0  0.42845051633599673  0.5003714500525633  0.695317329956759  1.0000
  H   H55       1.0  0.8383583505879333  0.44597999011056566  0.30389246002535997  1.0000
  H   H56       1.0  0.1616416493991205  0.5540200103200155  0.6961075397617627  1.0000
  H   H57       1.0  0.7538170005069575  0.8504378923784286  0.19918025608551096  1.0000
  H   H58       1.0  0.2461829994800963  0.14956210805215253  0.8008197437016116  1.0000
  H   H59       1.0  0.8150877552904608  0.9064043766989003  0.05001048120773455  1.0000
  H   H60       1.0  0.18491224458829228  0.09359562366022539  0.9499895191872825  1.0000
  H   H61       1.0  0.7042928155803775  0.6406225195499151  0.2442242879900861  1.0000
  H   H62       1.0  0.29570718440667626  0.35937748088066607  0.7557757117970365  1.0000
  C   C1        1.0  0.019158620330385075  0.6362484262412705  0.37945063563975917  1.0000
  C   C2        1.0  0.980841379548368  0.36375157411785525  0.6205493647552578  1.0000
  C   C3        1.0  0.28256110696664954  0.609946896067716  0.4942442952766453  1.0000
  C   C4        1.0  0.7174388930204043  0.39005310436286506  0.5057557045104772  1.0000
  C   C5        1.0  0.800846422084842  0.07543882509213873  0.4199640510386799  1.0000
  C   C6        1.0  0.1991535780247321  0.9245611743752546  0.5800359493555921  1.0000
  C   C7        1.0  0.5692390824018371  0.9094974921590441  0.40068049964770186  1.0000
  C   C8        1.0  0.430760917476916  0.09050250820008152  0.5993195007473151  1.0000
  C   C9        1.0  0.2634243658887918  0.9012634243514562  0.22841702934849514  1.0000
  C   C10       1.0  0.7365756326254422  0.09873657608893899  0.7715829704402205  1.0000
  C   C11       1.0  0.15991670838092492  0.13107358604373562  0.17711776671836188  1.0000
  C   C12       1.0  0.8400832918369499  0.8689264134951131  0.8228822330680158  1.0000
  C   C13       1.0  0.6812353697450765  0.2806761654110227  0.19238218366744808  1.0000
  C   C14       1.0  0.3187646301336765  0.719323834948103  0.8076178167275689  1.0000
  C   C15       1.0  0.7211800117165933  0.46099572777435444  0.13654674636563352  1.0000
  C   C16       1.0  0.2788199881621598  0.5390042725847712  0.8634532540293836  1.0000
  C   C17       1.0  0.7229618268677596  0.3855658981397851  0.07427087190639664  1.0000
  C   C18       1.0  0.2770381731192943  0.6144341022907961  0.925729127880726  1.0000
  C   C19       1.0  0.7411180520696428  0.5844096473431524  0.12088358081888517  1.0000
  C   C20       1.0  0.2588819479174112  0.41559035308742875  0.8791164189682373  1.0000
  C   C21       1.0  0.7435135556100323  0.4257439000911156  0.9899144614009232  1.0000
  C   C22       1.0  0.2564864446078426  0.5742560994477331  0.01008553838545444  1.0000
  C   C23       1.0  0.7660427319746705  0.6270805651716244  0.03743952568718444  1.0000
  C   C24       1.0  0.23395726801238323  0.3729194352589568  0.9625604740999382  1.0000
  C   C25       1.0  0.7649404849104723  0.5485647790055143  0.9721537760996097  1.0000
  C   C26       1.0  0.2350595151991018  0.451435220461879  0.027846224294662235  1.0000
  C   C27       1.0  0.7788830679065554  0.5308319372787008  0.8339377577692335  1.0000
  C   C28       1.0  0.2211169322030187  0.46916806218869245  0.1660622426250386  1.0000
  C   C29       1.0  0.759219287919281  0.40933612112008383  0.8452712296184447  1.0000
  C   C30       1.0  0.24078071206777282  0.5906638793104974  0.1547287701686779  1.0000
  C   C31       1.0  0.7423828237411045  0.3560935417960433  0.9236382305599663  1.0000
  C   C32       1.0  0.2576171763684694  0.64390645767135  0.0763617698343058  1.0000
  C   C33       1.0  0.6950463306922261  0.16317468843866073  0.07441947069098608  1.0000
  C   C34       1.0  0.30495366918652694  0.836825311920465  0.9255805297040308  1.0000
  C   C35       1.0  0.6920115904659093  0.4246600771507327  0.292790524562131  1.0000
  C   C36       1.0  0.3079884096436649  0.5753399223166605  0.707209475832141  1.0000
  C   C37       1.0  0.7590418747812672  0.7835623061739881  0.1555398247605676  1.0000
  C   C38       1.0  0.24095812509748568  0.21643769418513753  0.8444601756344493  1.0000
  C   C39       1.0  0.789669240599591  0.8162744764728602  0.07196679095177641  1.0000
  C   C40       1.0  0.2103307592791621  0.18372552388626567  0.9280332094432405  1.0000
  C   C41       1.0  0.7336823974052714  0.667170826326446  0.18013577939132894  1.0000
  C   C42       1.0  0.2663176024734816  0.33282917403267964  0.819864221003688  1.0000
  N   N1        1.0  0.697937276445966  0.2740519828014319  0.1117455605789089  1.0000
  N   N2        1.0  0.30206272377190885  0.7259480167374168  0.8882544392074687  1.0000
  N   N3        1.0  0.6961457359020162  0.3918424355438006  0.20945639061960136  1.0000
  N   N4        1.0  0.30385426431585866  0.6081575639950481  0.7905436091667764  1.0000
  N   N5        1.0  0.7827128128814244  0.5981396754480798  0.8951182382668597  1.0000
  N   N6        1.0  0.21728718699732863  0.401860324911046  0.10488176212815742  1.0000
  N   N7        1.0  0.7897067953594396  0.7414625185876232  0.0148310266438072  1.0000
  N   N8        1.0  0.21029320451931352  0.2585374817715023  0.9851689737512098  1.0000
  O   O1        1.0  0.39878716966228184  0.6635048453248412  0.33918704436614355  1.0000
  O   O2        1.0  0.6012128304472921  0.33649515414255204  0.6608129560281285  1.0000
  O   O3        1.0  0.7297066234773395  0.026539503140952967  0.2715281278684281  1.0000
  O   O4        1.0  0.2702933767405353  0.9734604963978958  0.7284718719179496  1.0000
  O   O5        1.0  0.1734270308836779  0.958703405664994  0.07619154484908451  1.0000
  O   O6        1.0  0.826572969103376  0.04129659476558714  0.923808454938038  1.0000
  S   S1        1.0  0.22990469752448292  0.7017385087218578  0.4020900721921057  1.0000
  S   S2        1.0  0.7700953025850911  0.2982614907455355  0.5979099282021664  1.0000
  S   S3        1.0  0.7885979857407144  0.962143413574166  0.35234065800395825  1.0000
  S   S4        1.0  0.21140201413803864  0.037856586784959574  0.6476593423910587  1.0000
  S   S5        1.0  0.2970088833253407  0.9971084627112796  0.13744694632153656  1.0000
  S   S6        1.0  0.7029911165534124  0.0028915376478460247  0.8625530540734804  1.0000
  I   I1        1.0  0.7505527717977016  0.7311995742399683  0.6065466134836797  1.0000
  I   I2        1.0  0.24944722842017325  0.26880042529888043  0.393453386302698  1.0000
