data_image0
_chemical_formula_structural       H120C104N12O16Cl4
_chemical_formula_sum              "H120 C104 N12 O16 Cl4"
_cell_length_a       24.470891063762764
_cell_length_b       10.26515011825076
_cell_length_c       9.538858507890113
_cell_angle_alpha    90.0
_cell_angle_beta     97.42489109643053
_cell_angle_gamma    90.0

_space_group_name_H-M_alt    "P 1"
_space_group_IT_number       1

loop_
  _space_group_symop_operation_xyz
  'x, y, z'

loop_
  _atom_site_type_symbol
  _atom_site_label
  _atom_site_symmetry_multiplicity
  _atom_site_fract_x
  _atom_site_fract_y
  _atom_site_fract_z
  _atom_site_occupancy
  H   H1        1.0  0.39358166839688313  0.8761477899879551  0.25654746937172407  1.0000
  H   H2        1.0  0.6064183314263463  0.3761477899027523  0.24345253017241494  1.0000
  H   H3        1.0  0.6064183314898685  0.12385221018245053  0.7434525301617777  1.0000
  H   H4        1.0  0.3935816684604052  0.6238522102676534  0.7565474693610867  1.0000
  H   H5        1.0  0.11492631804994888  0.2507647253422386  0.39238903331116165  1.0000
  H   H6        1.0  0.8850736817732806  0.7507647254274414  0.10761096623297738  1.0000
  H   H7        1.0  0.8850736818368027  0.7492352748281671  0.6076109662223401  1.0000
  H   H8        1.0  0.11492631811347094  0.24923527474296425  0.8923890333005243  1.0000
  H   H9        1.0  0.0027450398448607355  0.877530934884663  0.7298831710523763  1.0000
  H   H10       1.0  0.9972549601556184  0.37753093479946026  0.7701168295276668  1.0000
  H   H11       1.0  0.9972549600920964  0.12246906528574253  0.270116829538304  1.0000
  H   H12       1.0  0.00274503978133869  0.6224690653709454  0.2298831710630136  1.0000
  H   H13       1.0  0.03527730656566961  0.10768013592268423  0.7518985598964356  1.0000
  H   H14       1.0  0.9647226933846039  0.6076801360078871  0.7481014396264288  1.0000
  H   H15       1.0  0.9647226933210818  0.8923198642477215  0.24810143963706607  1.0000
  H   H16       1.0  0.03527730650214757  0.39231986416251863  0.2518985599070729  1.0000
  H   H17       1.0  0.13254244208289837  0.046429011218514504  0.4115748566998038  1.0000
  H   H18       1.0  0.8674575581493658  0.5464290113037173  0.08842514285221979  1.0000
  H   H19       1.0  0.8674575582128876  0.9535709889518912  0.5884251428415825  1.0000
  H   H20       1.0  0.13254244173738583  0.4535709888666883  0.9115748566812818  1.0000
  H   H21       1.0  0.10207417083172764  0.8174833561450122  0.3931832306778595  1.0000
  H   H22       1.0  0.8979258290417074  0.3174833560598093  0.10681676992345816  1.0000
  H   H23       1.0  0.8979258291052294  0.1825166440253935  0.6068167699128209  1.0000
  H   H24       1.0  0.10207417089524971  0.6825166441105963  0.8931832306672223  1.0000
  H   H25       1.0  0.15301432332578396  0.4517542156305286  0.6099893920869012  1.0000
  H   H26       1.0  0.8469856766244895  0.9517542157157315  0.8900106074359633  1.0000
  H   H27       1.0  0.8469856769700022  0.548245784539877  0.3900106074544851  1.0000
  H   H28       1.0  0.15301432326226194  0.04824578445467424  0.10998939209753847  1.0000
  H   H29       1.0  0.11178005668120328  0.4891609613260736  0.44808144968763775  1.0000
  H   H30       1.0  0.8882199431420261  0.9891609614112764  0.051918549856501225  1.0000
  H   H31       1.0  0.8882199432055482  0.510839038844332  0.551918549845864  1.0000
  H   H32       1.0  0.11178005674472533  0.010839038759129232  0.9480814496770006  1.0000
  H   H33       1.0  0.22951556428340425  0.3814480650446877  0.4853705750927016  1.0000
  H   H34       1.0  0.7704844359488598  0.8814480651298905  0.014629424459321977  1.0000
  H   H35       1.0  0.7704844356033473  0.6185519341515481  0.5146294244408002  1.0000
  H   H36       1.0  0.2295155643469263  0.11855193504051509  0.9853705750820642  1.0000
  H   H37       1.0  0.18655854336110478  0.38132786027556254  0.32090372660894817  1.0000
  H   H38       1.0  0.8134414564621247  0.8813278603607654  0.17909627293519084  1.0000
  H   H39       1.0  0.8134414565256468  0.6186721398948432  0.6790962729245537  1.0000
  H   H40       1.0  0.1865585434246268  0.11867213980964031  0.8209037265983109  1.0000
  H   H41       1.0  0.2743897209582373  0.5898612431623951  0.5739377870699667  1.0000
  H   H42       1.0  0.7256102789920362  0.08986124307719222  0.9260622124528978  1.0000
  H   H43       1.0  0.7256102789285142  0.4101387570080106  0.426062212463535  1.0000
  H   H44       1.0  0.2743897208947153  0.9101387570932136  0.07393778708060401  1.0000
  H   H45       1.0  0.29310966435968555  0.8182695102593734  0.5333414947773705  1.0000
  H   H46       1.0  0.706890335590588  0.3182695101741707  0.9666585047454941  1.0000
  H   H47       1.0  0.7068903359361006  0.1817304899110321  0.46665850476401594  1.0000
  H   H48       1.0  0.29310966429616353  0.681730489996235  0.03334149478800768  1.0000
  H   H49       1.0  0.16538086402385938  0.8234038608916447  0.1762105883661196  1.0000
  H   H50       1.0  0.8346191358495758  0.3234038617806118  0.323789412235198  1.0000
  H   H51       1.0  0.8346191359130977  0.176596138304591  0.8237894122245607  1.0000
  H   H52       1.0  0.16538086408738145  0.6765961383897938  0.6762105883554823  1.0000
  H   H53       1.0  0.1474764138906123  0.5895458839165284  0.21650267289945851  1.0000
  H   H54       1.0  0.8525235859828227  0.0895458848054954  0.2834973277018591  1.0000
  H   H55       1.0  0.8525235860463447  0.41045411527970743  0.7834973276912218  1.0000
  H   H56       1.0  0.14747641395413433  0.9104541153649103  0.7165026728888212  1.0000
  H   H57       1.0  0.28792317289395486  0.13745139951644814  0.1954426562771537  1.0000
  H   H58       1.0  0.7120768273383093  0.637451399601651  0.3045573432748699  1.0000
  H   H59       1.0  0.7120768274018313  0.8625486006539576  0.8045573432642326  1.0000
  H   H60       1.0  0.2879231725484423  0.3625486005687547  0.6954426562586319  1.0000
  H   H61       1.0  0.3113045517161518  0.23353051464273186  0.3479390952980124  1.0000
  H   H62       1.0  0.6886954485663179  0.7335305147279347  0.15206090531118982  1.0000
  H   H63       1.0  0.6886954482208053  0.7664694855276738  0.6520609052926679  1.0000
  H   H64       1.0  0.3113045517796738  0.26646948544247095  0.8479390952873751  1.0000
  H   H65       1.0  0.23930259112503688  0.21312150185805567  0.2925026904806148  1.0000
  H   H66       1.0  0.7606974087483981  0.7131215019432585  0.20749731012070283  1.0000
  H   H67       1.0  0.7606974088119203  0.78687849831235  0.7074973101100657  1.0000
  H   H68       1.0  0.23930259118855893  0.2868784982271471  0.7925026904699776  1.0000
  H   H69       1.0  0.2270790335598216  0.13089050277123068  0.53222463564863  1.0000
  H   H70       1.0  0.7729209664406576  0.6308905028564336  0.967775364931413  1.0000
  H   H71       1.0  0.7729209663771354  0.869109496425005  0.46777536494205024  1.0000
  H   H72       1.0  0.22707903390533415  0.36910949731397213  0.03222463566715195  1.0000
  H   H73       1.0  0.298715861303791  0.14038692404876105  0.5946028207656349  1.0000
  H   H74       1.0  0.7012841386464826  0.6403869231597941  0.9053971787572297  1.0000
  H   H75       1.0  0.7012841385829605  0.8596130761216447  0.40539717876786696  1.0000
  H   H76       1.0  0.298715861240269  0.3596130760364418  0.09460282077627206  1.0000
  H   H77       1.0  0.262411462144659  0.9917170682093006  0.6073512716014792  1.0000
  H   H78       1.0  0.7375885378056146  0.49171706909826773  0.8926487279213854  1.0000
  H   H79       1.0  0.7375885377420925  0.008282930986935126  0.3926487279320225  1.0000
  H   H80       1.0  0.2624114620811369  0.508282931072138  0.10735127161211645  1.0000
  H   H81       1.0  0.46389634757389175  0.9973878766562716  0.3832651018580325  1.0000
  H   H82       1.0  0.5361036522493378  0.49738787657106864  0.11673489768610652  1.0000
  H   H83       1.0  0.5361036523128598  0.0026121235141341732  0.6167348976754693  1.0000
  H   H84       1.0  0.4638963476374138  0.5026121235993369  0.8832651018473953  1.0000
  H   H85       1.0  0.5587271348012591  0.016865145468471843  0.31299330569233236  1.0000
  H   H86       1.0  0.441272865072176  0.5168651455536747  0.18700669490898525  1.0000
  H   H87       1.0  0.441272865135698  0.9831348547019338  0.687006694898348  1.0000
  H   H88       1.0  0.5587271348647811  0.483134854616731  0.8129933056816951  1.0000
  H   H89       1.0  0.5063939427762434  0.7394466931861557  0.9768912058848316  1.0000
  H   H90       1.0  0.4936060576332704  0.2394466931009529  0.5231087947030961  1.0000
  H   H91       1.0  0.4936060575697483  0.26055330698424994  0.023108794713733474  1.0000
  H   H92       1.0  0.5063939427127213  0.7605533070694528  0.4768912058954688  1.0000
  H   H93       1.0  0.41596609096687553  0.7281613092740361  0.06760414219827142  1.0000
  H   H94       1.0  0.5840339092653886  0.22816130918883323  0.43239585735375213  1.0000
  H   H95       1.0  0.5840339093289105  0.2718386908963696  0.9323958573431148  1.0000
  H   H96       1.0  0.41596609062136297  0.7718386909815724  0.5676041421797495  1.0000
  H   H97       1.0  0.6674634715789967  0.9855501257612357  0.097287662019844  1.0000
  H   H98       1.0  0.33253652865326744  0.48555012567603284  0.4027123375321796  1.0000
  H   H99       1.0  0.3325365283077549  0.014449874409169994  0.9027123375136578  1.0000
  H   H100      1.0  0.6674634716425186  0.5144498744943728  0.5972876620092067  1.0000
  H   H101      1.0  0.6388348940770988  0.9786169772753247  0.2596847878694364  1.0000
  H   H102      1.0  0.3611651057461307  0.4786169771901218  0.24031521167470257  1.0000
  H   H103      1.0  0.3611651058096527  0.021383022895081056  0.7403152116640653  1.0000
  H   H104      1.0  0.6388348941406208  0.5213830229802839  0.7596847878587991  1.0000
  H   H105      1.0  0.6140468874338899  0.09515631030697982  0.12769336631883738  1.0000
  H   H106      1.0  0.38595311243954505  0.5951563103921826  0.3723066342824802  1.0000
  H   H107      1.0  0.38595311250306713  0.9048436898634258  0.8723066342718431  1.0000
  H   H108      1.0  0.6140468874974121  0.40484368977822305  0.6276933663082002  1.0000
  H   H109      1.0  0.5666443642144681  0.8512741625145452  0.8650338379592213  1.0000
  H   H110      1.0  0.43335563578601116  0.35127416242934234  0.6349661626208218  1.0000
  H   H111      1.0  0.43335563572248903  0.14872583765586053  0.13496616263145914  1.0000
  H   H112      1.0  0.566644364150946  0.6487258377410634  0.3650338379698585  1.0000
  H   H113      1.0  0.6028038341085209  0.7255835164804408  0.9696527009797283  1.0000
  H   H114      1.0  0.3971961658919582  0.22558351639523802  0.5303472996003149  1.0000
  H   H115      1.0  0.39719616582843614  0.2744164836899648  0.030347299610952085  1.0000
  H   H116      1.0  0.6028038340449989  0.7744164837751676  0.46965270099036555  1.0000
  H   H117      1.0  0.6381675140705936  0.867876526633604  0.9210547483564016  1.0000
  H   H118      1.0  0.3618324858796799  0.36787652654840125  0.5789452511664628  1.0000
  H   H119      1.0  0.3618324858161579  0.13212347353680157  0.07894525117710002  1.0000
  H   H120      1.0  0.6381675140070716  0.6321234736220044  0.42105474836703893  1.0000
  C   C1        1.0  0.050904808888450157  0.835058853621589  0.5605562095580241  1.0000
  C   C2        1.0  0.949095191470858  0.3350588535363863  0.9394437899727249  1.0000
  C   C3        1.0  0.949095191407336  0.16494114654881653  0.43944378998336214  1.0000
  C   C4        1.0  0.050904808824928115  0.6649411466340194  0.06055620956866145  1.0000
  C   C5        1.0  0.031603593472577345  0.9150997629638883  0.6619123040130904  1.0000
  C   C6        1.0  0.9683964064776962  0.41509976287868544  0.8380876955097741  1.0000
  C   C7        1.0  0.9683964068232088  0.08490023720651743  0.338087695528296  1.0000
  C   C8        1.0  0.031603593409055296  0.5849002372917202  0.16191230402372767  1.0000
  C   C9        1.0  0.04967867779658723  0.04377993451853986  0.673252097920297  1.0000
  C   C10       1.0  0.950321322203892  0.5437799346037427  0.8267479026597461  1.0000
  C   C11       1.0  0.9503213221403699  0.9562200646776959  0.32674790267038334  1.0000
  C   C12       1.0  0.04967867814209977  0.4562200645924931  0.17325209793881885  1.0000
  C   C13       1.0  0.08584224860486953  0.09370496767405409  0.5838152751627561  1.0000
  C   C14       1.0  0.9141577513454041  0.593704967759257  0.9161847243601083  1.0000
  C   C15       1.0  0.9141577512818819  0.9062950324963515  0.41618472437074566  1.0000
  C   C16       1.0  0.08584224895038207  0.4062950324111488  0.08381527518127795  1.0000
  C   C17       1.0  0.1041203524829657  0.011295332134875612  0.4819356992901258  1.0000
  C   C18       1.0  0.8958796477492983  0.5112953322200785  0.018064300261897787  1.0000
  C   C19       1.0  0.8958796474037859  0.98870466803553  0.5180643002433759  1.0000
  C   C20       1.0  0.10412035254648774  0.48870466795032724  0.9819356992794888  1.0000
  C   C21       1.0  0.08691508281185725  0.8818950376482799  0.47018400042888175  1.0000
  C   C22       1.0  0.9130849170615779  0.3818950375630772  0.0298160001724359  1.0000
  C   C23       1.0  0.9130849171250999  0.11810496252212568  0.5298160001617986  1.0000
  C   C24       1.0  0.0869150828753793  0.6181049626073285  0.9701840004182446  1.0000
  C   C25       1.0  0.10431847120599813  0.23227054086241625  0.6034467276881176  1.0000
  C   C26       1.0  0.8956815287442755  0.7322705399734493  0.896553271834747  1.0000
  C   C27       1.0  0.8956815286807533  0.7677294593079894  0.39655327184538414  1.0000
  C   C28       1.0  0.1043184711424761  0.2677294592227866  0.10344672769875483  1.0000
  C   C29       1.0  0.1437825706980253  0.4226896791587677  0.4988900558794486  1.0000
  C   C30       1.0  0.8562174295342386  0.9226896782698006  0.0011099436725749514  1.0000
  C   C31       1.0  0.8562174291887262  0.577310321011638  0.501109943654053  1.0000
  C   C32       1.0  0.14378257076154735  0.07731032092643514  0.9988900558688112  1.0000
  C   C33       1.0  0.1951732248094457  0.43243991942286775  0.4227585437421669  1.0000
  C   C34       1.0  0.8048267754228182  0.9324399195080706  0.07724145580985671  1.0000
  C   C35       1.0  0.8048267750773058  0.5675600807475379  0.5772414557913348  1.0000
  C   C36       1.0  0.1951732248729678  0.0675600806623351  0.9227585437315298  1.0000
  C   C37       1.0  0.20979506419858093  0.5715799713019521  0.3969769305797099  1.0000
  C   C38       1.0  0.7902049356748541  0.07157997121674929  0.10302307002160771  1.0000
  C   C39       1.0  0.7902049357383761  0.42842002886845354  0.6030230700109706  1.0000
  C   C40       1.0  0.20979506426210304  0.9284200289536564  0.8969769305690727  1.0000
  C   C41       1.0  0.25073375257992697  0.638424532959169  0.48395145959071795  1.0000
  C   C42       1.0  0.7492662472433026  0.13842453287396617  0.016048539953421075  1.0000
  C   C43       1.0  0.7492662473068245  0.3615754672112367  0.5160485399427838  1.0000
  C   C44       1.0  0.25073375264344905  0.8615754672964395  0.9839514595800808  1.0000
  C   C45       1.0  0.26107277577483917  0.7702561685817181  0.46197921602327585  1.0000
  C   C46       1.0  0.7389272240483904  0.2702561684965152  0.03802078352086315  1.0000
  C   C47       1.0  0.7389272241119124  0.22974383158868766  0.538020783510226  1.0000
  C   C48       1.0  0.2610727758383612  0.7297438316738905  0.9619792160126386  1.0000
  C   C49       1.0  0.22966815695523368  0.8372755713254582  0.3519771719447434  1.0000
  C   C50       1.0  0.7703318429182013  0.33727557124025537  0.14802282865657418  1.0000
  C   C51       1.0  0.7703318429817235  0.1627244278707776  0.648022828645937  1.0000
  C   C52       1.0  0.2296681570187557  0.6627244279559805  0.8519771719341062  1.0000
  C   C53       1.0  0.18874831712655923  0.770999124107175  0.26337528603925947  1.0000
  C   C54       1.0  0.8112516826966703  0.2709991240219722  0.2366247135048795  1.0000
  C   C55       1.0  0.8112516827601923  0.2290008760632307  0.7366247134942422  1.0000
  C   C56       1.0  0.18874831719008126  0.7290008761484336  0.7633752860286223  1.0000
  C   C57       1.0  0.1792453247465547  0.6401341514058392  0.2862289384135383  1.0000
  C   C58       1.0  0.8207546750766748  0.14013415132063634  0.21377106113060063  1.0000
  C   C59       1.0  0.8207546751401968  0.3598658487645665  0.7137710611199634  1.0000
  C   C60       1.0  0.17924532481007674  0.8598658478755995  0.7862289384029011  1.0000
  C   C61       1.0  0.27913414541940956  0.042798382384968435  0.39342287583189917  1.0000
  C   C62       1.0  0.7208658544038199  0.5427983824701713  0.10657712371223982  1.0000
  C   C63       1.0  0.720865854467342  0.9572016177854372  0.6065771237016025  1.0000
  C   C64       1.0  0.27913414548293164  0.45720161770023443  0.8934228758212618  1.0000
  C   C65       1.0  0.3362309772777381  0.9759433485720089  0.38973434062245554  1.0000
  C   C66       1.0  0.6637690225454913  0.4759433484868061  0.11026565892168341  1.0000
  C   C67       1.0  0.6637690226090135  0.024056651598396775  0.6102656589110461  1.0000
  C   C68       1.0  0.3362309773412601  0.5240566516835996  0.8897343406118182  1.0000
  C   C69       1.0  0.2796068231395595  0.16502771810303277  0.3016636018680682  1.0000
  C   C70       1.0  0.7203931770927046  0.6650277181882356  0.1983363976839554  1.0000
  C   C71       1.0  0.7203931771562266  0.8349722820673728  0.6983363976733181  1.0000
  C   C72       1.0  0.2796068227940469  0.33497228198217005  0.8016636018495463  1.0000
  C   C73       1.0  0.26628996231528484  0.07766226414775997  0.541236857798273  1.0000
  C   C74       1.0  0.7337100376349887  0.5776622642329627  0.9587631417245912  1.0000
  C   C75       1.0  0.7337100375714666  0.9223377360226458  0.45876314173522864  1.0000
  C   C76       1.0  0.2662899622517628  0.42233773593744284  0.04123685780891038  1.0000
  C   C77       1.0  0.4767046881399786  0.9433201208410669  0.2945589768349829  1.0000
  C   C78       1.0  0.5232953116832508  0.4433201207558642  0.2054410227091561  1.0000
  C   C79       1.0  0.5232953117467729  0.056679879329338705  0.7054410226985187  1.0000
  C   C80       1.0  0.4767046882035006  0.5566798794145416  0.7945589768243456  1.0000
  C   C81       1.0  0.5281017314737225  0.9553732392635654  0.25253313089290114  1.0000
  C   C82       1.0  0.47189826839971255  0.45537324015253244  0.2474668697084165  1.0000
  C   C83       1.0  0.47189826846323457  0.044626759932670415  0.7474668696977792  1.0000
  C   C84       1.0  0.5281017315372446  0.5446267600178732  0.7525331308822638  1.0000
  C   C85       1.0  0.5406754277567131  0.8848294594202952  0.13181202276303677  1.0000
  C   C86       1.0  0.4593245720665164  0.3848294593350924  0.3681879767811022  1.0000
  C   C87       1.0  0.45932457213003847  0.11517054075011042  0.8681879767704648  1.0000
  C   C88       1.0  0.5406754278202351  0.6151705408353133  0.6318120227523994  1.0000
  C   C89       1.0  0.4991003587963968  0.7989282071402884  0.06678770577468489  1.0000
  C   C90       1.0  0.5008996414358673  0.29892820705508566  0.4332122937773387  1.0000
  C   C91       1.0  0.5008996410903548  0.2010717930301172  0.9332122937588168  1.0000
  C   C92       1.0  0.4991003588599188  0.7010717931153201  0.5667877057640477  1.0000
  C   C93       1.0  0.448770314497002  0.792021829816692  0.11630258423722585  1.0000
  C   C94       1.0  0.5512296857854677  0.2920218297314892  0.38369741637197635  1.0000
  C   C95       1.0  0.5512296854399551  0.2079781703537136  0.8836974163534544  1.0000
  C   C96       1.0  0.4487703145605241  0.7079781704389164  0.6163025842265886  1.0000
  C   C97       1.0  0.6294144619687356  0.994724714434085  0.1452656547549662  1.0000
  C   C98       1.0  0.3705855382635284  0.49472471434888204  0.3547343447970574  1.0000
  C   C99       1.0  0.37058553791801585  0.0052752857363208  0.8547343447785355  1.0000
  C   C100      1.0  0.6294144620322577  0.5052752858215236  0.6452656547443288  1.0000
  C   C101      1.0  0.599536306312158  0.8317150885909177  0.9526431387289168  1.0000
  C   C102      1.0  0.40046369368832113  0.33171508850571485  0.5473568618511263  1.0000
  C   C103      1.0  0.4004636940338337  0.16828491060531814  0.04735686186964818  1.0000
  C   C104      1.0  0.599536306248636  0.668284910690521  0.4526431387395541  1.0000
  N   N1        1.0  0.12327732377215725  0.29002196906082056  0.49311222913060215  1.0000
  N   N2        1.0  0.8767226761012777  0.7900219691460233  0.00688777147071547  1.0000
  N   N3        1.0  0.8767226761647999  0.7099780311095851  0.5068877714600782  1.0000
  N   N4        1.0  0.1232773238356793  0.2099780310243823  0.993112229119965  1.0000
  N   N5        1.0  0.4374502315115945  0.8640746621162393  0.22762578033699168  1.0000
  N   N6        1.0  0.5625497683618405  0.3640746620310365  0.2723742202643259  1.0000
  N   N7        1.0  0.5625497684253625  0.13592533805416632  0.7723742202536886  1.0000
  N   N8        1.0  0.4374502315751166  0.6359253381393691  0.7276257803263544  1.0000
  N   N9        1.0  0.5891371810676181  0.9000642799731825  0.08082047930375608  1.0000
  N   N10       1.0  0.41086281880581693  0.4000642798879797  0.41917952129756153  1.0000
  N   N11       1.0  0.4108628188693389  0.09993572019722315  0.9191795212869243  1.0000
  N   N12       1.0  0.5891371811311402  0.5999357202824259  0.5808204792931189  1.0000
  O   O1        1.0  0.10276029294618937  0.2907227771266675  0.7187946179280572  1.0000
  O   O2        1.0  0.8972397070542898  0.7907227762377004  0.7812053826519858  1.0000
  O   O3        1.0  0.8972397069907676  0.7092772230437382  0.2812053826626231  1.0000
  O   O4        1.0  0.10276029288266732  0.20927722295853537  0.2187946179386945  1.0000
  O   O5        1.0  0.23505740633010896  0.9663470349414016  0.31939355305037953  1.0000
  O   O6        1.0  0.7649425934931205  0.46634703485619877  0.1806064464937595  1.0000
  O   O7        1.0  0.7649425935566425  0.03365296522900408  0.6806064464831222  1.0000
  O   O8        1.0  0.235057406393631  0.5336529653142069  0.8193935530397423  1.0000
  O   O9        1.0  0.34071082169376415  0.9126650387063672  0.2756051088303059  1.0000
  O   O10       1.0  0.6592891781294654  0.4126650386211643  0.22439489071383303  1.0000
  O   O11       1.0  0.6592891781929874  0.08733496146403846  0.7243948907031957  1.0000
  O   O12       1.0  0.3407108217572862  0.5873349605750714  0.7756051088196686  1.0000
  O   O13       1.0  0.3742223085391367  0.9934033757450496  0.4903402614285091  1.0000
  O   O14       1.0  0.6257776913342983  0.4934033766340166  0.009659739172808471  1.0000
  O   O15       1.0  0.6257776913978204  0.006596623451186224  0.5096597391621711  1.0000
  O   O16       1.0  0.3742223086026588  0.5065966235363891  0.9903402614178718  1.0000
  Cl  Cl1       1.0  0.030294603606258443  0.6731148186245366  0.5471477678772294  1.0000
  Cl  Cl2       1.0  0.9697053968032553  0.1731148185393337  0.9528522327106983  1.0000
  Cl  Cl3       1.0  0.9697053967397332  0.32688518154586915  0.45285223272133546  1.0000
  Cl  Cl4       1.0  0.030294603542736397  0.8268851816310719  0.0471477678878667  1.0000
