data_image0
_chemical_formula_structural       H54C42N18O20S6
_chemical_formula_sum              "H54 C42 N18 O20 S6"
_cell_length_a       4.959655437345658
_cell_length_b       10.701490878068592
_cell_length_c       26.935117162303985
_cell_angle_alpha    97.83402572122588
_cell_angle_beta     92.74758146943375
_cell_angle_gamma    97.33902296495116

_space_group_name_H-M_alt    "P 1"
_space_group_IT_number       1

loop_
  _space_group_symop_operation_xyz
  'x, y, z'

loop_
  _atom_site_type_symbol
  _atom_site_label
  _atom_site_symmetry_multiplicity
  _atom_site_fract_x
  _atom_site_fract_y
  _atom_site_fract_z
  _atom_site_occupancy
  H   H1        1.0  0.12437140292822843  0.9975627547568697  0.8365282641344606  1.0000
  H   H2        1.0  0.8756285979189685  0.0024372454113893204  0.16347173616056127  1.0000
  H   H3        1.0  0.1950484838578933  0.4582226027516686  0.005388263682969398  1.0000
  H   H4        1.0  0.8049515149716803  0.5417773974058525  0.9946117362216735  1.0000
  H   H5        1.0  0.835749740642295  0.11573789113777339  0.7985240727052888  1.0000
  H   H6        1.0  0.1642502581872787  0.8842621090197476  0.20147592719935412  1.0000
  H   H7        1.0  0.7524448390195957  0.2722533354735419  0.816195040243418  1.0000
  H   H8        1.0  0.24755515980997791  0.7277466646839792  0.18380495966122487  1.0000
  H   H9        1.0  0.6794745419664645  0.5531898018341365  0.6913586004382543  1.0000
  H   H10       1.0  0.3205254588832293  0.44681019832878055  0.3086413994852445  1.0000
  H   H11       1.0  0.9581491122138672  0.6638932042119414  0.6795790525583066  1.0000
  H   H12       1.0  0.04185088661570637  0.3361067959455798  0.32042094734633625  1.0000
  H   H13       1.0  0.2045797055532591  0.34109790341793883  0.8725975953049369  1.0000
  H   H14       1.0  0.7954202952964347  0.6589020967449781  0.12740240461856178  1.0000
  H   H15       1.0  0.42695929855405396  0.48509587839752  0.8848394956248266  1.0000
  H   H16       1.0  0.5730407022931429  0.514904121770739  0.11516050467019519  1.0000
  H   H17       1.0  0.5900218073218823  0.4055821204745301  0.4689683076213983  1.0000
  H   H18       1.0  0.4099781915076913  0.5944178796829911  0.5310316922832446  1.0000
  H   H19       1.0  0.7545278182897573  0.43247281710370733  0.530363349470847  1.0000
  H   H20       1.0  0.24547218255993655  0.5675271830592098  0.4696366504526518  1.0000
  H   H21       1.0  0.6861306878143946  0.25306334042538997  0.4076146387946226  1.0000
  H   H22       1.0  0.31386931101517895  0.7469366597321312  0.5923853611100203  1.0000
  H   H23       1.0  0.3000665579705941  0.02359455753806514  0.4393766986153544  1.0000
  H   H24       1.0  0.6999334428766028  0.9764054426301939  0.5606233016796675  1.0000
  H   H25       1.0  0.46769050897156256  0.30525114563438704  0.5797826989781641  1.0000
  H   H26       1.0  0.5323094898580111  0.6947488545231341  0.42021730092647863  1.0000
  H   H27       1.0  0.5819716422527766  0.16746228080900347  0.6006053405740116  1.0000
  H   H28       1.0  0.4180283585969171  0.8325377193539134  0.3993946593494871  1.0000
  H   H29       1.0  0.2286967876553709  0.1888227475836996  0.6012407523355446  1.0000
  H   H30       1.0  0.7713032131943229  0.8111772525792174  0.398759247587954  1.0000
  H   H31       1.0  0.017569862566227192  0.987056076309302  0.3053902087767487  1.0000
  H   H32       1.0  0.9824301382834668  0.012943923853614998  0.69460979114675  1.0000
  H   H33       1.0  0.07784558800339546  0.9128574514257654  0.3596598986538593  1.0000
  H   H34       1.0  0.9221544105611353  0.08714254777972766  0.640340101198975  1.0000
  H   H35       1.0  0.30620121731231287  0.05116487291764971  0.348504133651982  1.0000
  H   H36       1.0  0.693798783534884  0.9488351272506095  0.6514958666430399  1.0000
  H   H37       1.0  0.2698884201495839  0.08702650632223208  0.9202196981591376  1.0000
  H   H38       1.0  0.7301115806976131  0.912973493846027  0.07978030213588438  1.0000
  H   H39       1.0  0.15762904247035375  0.05936043754134489  0.9800134704385912  1.0000
  H   H40       1.0  0.8423709563592199  0.9406395626161763  0.01998652946605161  1.0000
  H   H41       1.0  0.353232749711385  0.7195621068632411  0.8481519859269243  1.0000
  H   H42       1.0  0.6467672508732659  0.2804378923476477  0.1518480139447658  1.0000
  H   H43       1.0  0.3696197205312635  0.8841490982736133  0.008593825072154136  1.0000
  H   H44       1.0  0.63038027829831  0.1158509018839077  0.9914061748324887  1.0000
  H   H45       1.0  0.5328982912708664  0.7462680290926555  0.016150342823837864  1.0000
  H   H46       1.0  0.46710170957882746  0.2537319710702615  0.9838496570996608  1.0000
  H   H47       1.0  0.16961133568626602  0.7325527187905194  0.008094853830384307  1.0000
  H   H48       1.0  0.8303886651634278  0.26744728137239754  0.9919051460931143  1.0000
  H   H49       1.0  0.5439841834860188  0.7747604103669463  0.7223733536134214  1.0000
  H   H50       1.0  0.4560158153435548  0.22523958979057476  0.27762664629122147  1.0000
  H   H51       1.0  0.31049597997118994  0.7968896210753779  0.7707266022767157  1.0000
  H   H52       1.0  0.689504020876007  0.20311037909288118  0.2292733980183061  1.0000
  H   H53       1.0  0.5053121834418653  0.6649192879913518  0.7671711117765123  1.0000
  H   H54       1.0  0.4946878174078285  0.33508071217156526  0.2328288881469862  1.0000
  C   C1        1.0  0.35571562082572694  0.2912638407803256  0.7382752583208952  1.0000
  C   C2        1.0  0.6442843800239668  0.7087361593825914  0.26172474160260356  1.0000
  C   C3        1.0  0.10604242035294577  0.4128396198023697  0.6973957398707921  1.0000
  C   C4        1.0  0.8939575802292083  0.5871603794138611  0.3026042603724212  1.0000
  C   C5        1.0  0.12960908715103206  0.43391371843407595  0.7822034763388086  1.0000
  C   C6        1.0  0.8703909116760445  0.5660862817287872  0.21779652393735752  1.0000
  C   C7        1.0  0.670035695915441  0.17509249529998303  0.7992984053447214  1.0000
  C   C8        1.0  0.32996430466921  0.8249075039109058  0.20070159452696867  1.0000
  C   C9        1.0  0.4578313556491318  0.12390019484969383  0.8327274549425272  1.0000
  C   C10       1.0  0.5421686431804418  0.8760998053078273  0.1672725449621157  1.0000
  C   C11       1.0  0.8121128646574896  0.5818117317608765  0.6623488970257644  1.0000
  C   C12       1.0  0.1878871361922042  0.4181882684020405  0.33765110289773426  1.0000
  C   C13       1.0  0.6416742877388639  0.6200045258720349  0.6198955447745652  1.0000
  C   C14       1.0  0.3583257131108297  0.37999547429088204  0.3801044551489335  1.0000
  C   C15       1.0  0.2114187855627961  0.44431768868766225  0.8832302504403087  1.0000
  C   C16       1.0  0.7885812152844007  0.5556823114805968  0.11676974985471321  1.0000
  C   C17       1.0  0.1052622685606166  0.4703214217480359  0.9343051233664477  1.0000
  C   C18       1.0  0.8947377322890773  0.5296785784148812  0.06569487655705093  1.0000
  C   C19       1.0  0.8726268103560572  0.28746861861731604  0.4824241762996289  1.0000
  C   C20       1.0  0.12737318847351642  0.7125313815402051  0.5175758236050139  1.0000
  C   C21       1.0  0.19714253788737507  0.16380255659983842  0.4995856100689205  1.0000
  C   C22       1.0  0.8028574629623189  0.8361974435630787  0.5004143898545781  1.0000
  C   C23       1.0  0.17352590896111467  0.09678441690161638  0.4502048135304828  1.0000
  C   C24       1.0  0.8264740918885791  0.9032155832613007  0.5497951863930158  1.0000
  C   C25       1.0  0.9825444372117097  0.13257738249044565  0.4179857015089958  1.0000
  C   C26       1.0  0.017455561617863987  0.8674226176670754  0.5820142983956471  1.0000
  C   C27       1.0  0.41513167313339233  0.20341402758082713  0.5814550894487744  1.0000
  C   C28       1.0  0.5848683277163015  0.7965859725820899  0.4185449104747242  1.0000
  C   C29       1.0  0.09494333151662845  0.003884786454508394  0.34476257253136244  1.0000
  C   C30       1.0  0.9050566673104484  0.9961152137083549  0.6552374277448036  1.0000
  C   C31       1.0  0.9338370115571578  0.9544551389462058  0.9177348832272483  1.0000
  C   C32       1.0  0.06616298700487597  0.04554486026462914  0.08226511699710919  1.0000
  C   C33       1.0  0.5517162238891783  0.8117883011722989  0.9196327539796025  1.0000
  C   C34       1.0  0.4482837769605157  0.18821169899061824  0.08036724594389619  1.0000
  C   C35       1.0  0.5232863760060729  0.785398736372879  0.866948234937949  1.0000
  C   C36       1.0  0.47671362282350077  0.2146012637846421  0.13305176496669385  1.0000
  C   C37       1.0  0.7195289991124569  0.8521230353933706  0.8420513601606303  1.0000
  C   C38       1.0  0.28047100173473993  0.14787696477488846  0.1579486401343915  1.0000
  C   C39       1.0  0.3615564758983549  0.7811881820920292  0.9977469410843834  1.0000
  C   C40       1.0  0.6384435249513388  0.2188118180708876  0.002253058839115192  1.0000
  C   C41       1.0  0.5060923264152247  0.7647054271967755  0.7614461645886514  1.0000
  C   C42       1.0  0.493907674434469  0.23529457296614154  0.23855383533484725  1.0000
  N   N1        1.0  0.2671934693560247  0.3196803334909787  0.6940031637725649  1.0000
  N   N2        1.0  0.7328065314911721  0.6803196666772803  0.3059968365224569  1.0000
  N   N3        1.0  0.03197287581489269  0.4738942958523613  0.7406697658417795  1.0000
  N   N4        1.0  0.968027125034801  0.5261057043105557  0.2593302340817192  1.0000
  N   N5        1.0  0.29465095320896767  0.3444848758264951  0.7839460810194242  1.0000
  N   N6        1.0  0.7053490456206061  0.6555151243310261  0.21605391888521877  1.0000
  N   N7        1.0  0.7282562751315104  0.38138846435128027  0.49511962761233624  1.0000
  N   N8        1.0  0.2717437236980632  0.6186115358062408  0.5048803722923066  1.0000
  N   N9        1.0  0.05327020928809095  0.2558066711956286  0.5157436050648008  1.0000
  N   N10       1.0  0.9467297915616029  0.7441933289672884  0.4842563948586979  1.0000
  N   N11       1.0  0.8307225398953012  0.22496158161654314  0.43429191879206686  1.0000
  N   N12       1.0  0.1692774589342724  0.7750384185409779  0.5657080811125761  1.0000
  N   N13       1.0  0.13553166540242775  0.03960381937661232  0.9415539604030161  1.0000
  N   N14       1.0  0.8644683351822232  0.9603961798342766  0.058446039468674084  1.0000
  N   N15       1.0  0.751265155971484  0.8938159846470259  0.945479331777884  1.0000
  N   N16       1.0  0.24873484259304668  0.10618401455846699  0.05452066807495034  1.0000
  N   N17       1.0  0.9248690521009946  0.9351487579390833  0.8667759943686137  1.0000
  N   N18       1.0  0.07513094672857921  0.06485124221843792  0.1332240055360292  1.0000
  O   O1        1.0  0.48679837116396124  0.16219486186987983  0.8785580259716039  1.0000
  O   O2        1.0  0.5132016276656124  0.8378051382876414  0.12144197393303903  1.0000
  O   O3        1.0  0.26175840665603495  0.03817988876224532  0.8102328805600634  1.0000
  O   O4        1.0  0.7382415921710417  0.961820111400618  0.18976711971610272  1.0000
  O   O5        1.0  0.6426288530241997  0.5603458910840232  0.5759747200197944  1.0000
  O   O6        1.0  0.3573711458028771  0.43965410907884  0.42402528025637165  1.0000
  O   O7        1.0  0.509581978337683  0.7121740171045146  0.632962738879583  1.0000
  O   O8        1.0  0.4904180204918906  0.28782598305300666  0.36703726102506  1.0000
  O   O9        1.0  0.8909800726415947  0.5174204889704465  0.9416031509438737  1.0000
  O   O10       1.0  0.1090199261854819  0.48257951119241665  0.058396849332292486  1.0000
  O   O11       1.0  0.26179111871209476  0.4365678378404498  0.9694876491799685  1.0000
  O   O12       1.0  0.738208882137599  0.5634321623224672  0.030512350743530068  1.0000
  O   O13       1.0  0.38214583052248535  0.1309760205633612  0.5316566458659496  1.0000
  O   O14       1.0  0.6178541703272085  0.8690239795995558  0.4683433540575492  1.0000
  O   O15       1.0  0.9204516329765345  0.08673513782341921  0.3695149327462691  1.0000
  O   O16       1.0  0.07954836787315929  0.913264862339498  0.6304850671772295  1.0000
  O   O17       1.0  0.3586832423405007  0.7493930759200064  0.9439166040545878  1.0000
  O   O18       1.0  0.6413167585091931  0.25060692424291064  0.056083395868910924  1.0000
  O   O19       1.0  0.7269683465708856  0.8443196594124148  0.7918100199123915  1.0000
  O   O20       1.0  0.27303165427880827  0.1556803407505022  0.20818998001110717  1.0000
  S   S1        1.0  0.5679230103821283  0.17294761529719935  0.7341911802805264  1.0000
  S   S2        1.0  0.43207699046756554  0.8270523848657176  0.2658088196429722  1.0000
  S   S3        1.0  0.9935210443383938  0.45139378885444503  0.6401645646531406  1.0000
  S   S4        1.0  0.00647895449117971  0.5486062113030762  0.3598354352515023  1.0000
  S   S5        1.0  0.011899561030526189  0.5083126260384128  0.8373656412273345  1.0000
  S   S6        1.0  0.9881004395541247  0.4916873731724761  0.16263435864435563  1.0000
