data_image0
_chemical_formula_structural       H18C26N2O2F8S2I4
_chemical_formula_sum              "H18 C26 N2 O2 F8 S2 I4"
_cell_length_a       8.84340952145078
_cell_length_b       6.1376204343836225
_cell_length_c       15.374974419798255
_cell_angle_alpha    90.0
_cell_angle_beta     103.32346400052076
_cell_angle_gamma    90.0

_space_group_name_H-M_alt    "P 1"
_space_group_IT_number       1

loop_
  _space_group_symop_operation_xyz
  'x, y, z'

loop_
  _atom_site_type_symbol
  _atom_site_label
  _atom_site_symmetry_multiplicity
  _atom_site_fract_x
  _atom_site_fract_y
  _atom_site_fract_z
  _atom_site_occupancy
  H   H1        1.0  0.4747842832677306  0.5301226533613032  0.8844058796191689  1.0000
  H   H2        1.0  0.5252157170528353  0.030122652903766103  0.11559412027093036  1.0000
  H   H3        1.0  0.2644567113308277  0.43379932474879157  0.7540167558294086  1.0000
  H   H4        1.0  0.7355432889897382  0.9337993235770328  0.24598324406069064  1.0000
  H   H5        1.0  0.32591386646091414  0.04783449109287973  0.6306292289528832  1.0000
  H   H6        1.0  0.6740861338596518  0.5478344899211208  0.3693707709372161  1.0000
  H   H7        1.0  0.5341479960959461  0.14694038669248058  0.762052123329682  1.0000
  H   H8        1.0  0.46585200309553026  0.6469403871500177  0.23794787656459526  1.0000
  H   H9        1.0  0.08909436901303835  0.8167965799767569  0.5719222539286286  1.0000
  H   H10       1.0  0.9109056313075276  0.31679658114851583  0.42807774596147063  1.0000
  H   H11       1.0  0.07426810945172578  0.5535524844395493  0.6184018605075721  1.0000
  H   H12       1.0  0.9257318897397505  0.05355248398201225  0.3815981393867052  1.0000
  H   H13       1.0  0.20726576389202161  0.6020389089719074  0.5505769401586789  1.0000
  H   H14       1.0  0.7927342364285442  0.10203890851437027  0.4494230597314204  1.0000
  H   H15       1.0  0.5272567674079152  0.18942447849770902  0.9632084074345324  1.0000
  H   H16       1.0  0.4727432329126507  0.6894244789552462  0.03679159245556698  1.0000
  H   H17       1.0  0.7219224060695467  0.24283701410572472  0.9803768773382916  1.0000
  H   H18       1.0  0.2780775942510193  0.7428370145632618  0.019623122551807717  1.0000
  C   C1        1.0  0.2502584132501909  0.10994324220829185  0.3301363963687581  1.0000
  C   C2        1.0  0.7497415859412855  0.6099432426658289  0.6698636035255192  1.0000
  C   C3        1.0  0.19012280722759475  0.038243244675910344  0.2428734350929665  1.0000
  C   C4        1.0  0.8098771922387399  0.5382432451334475  0.7571265654696955  1.0000
  C   C5        1.0  0.08193425218273215  0.16304860339583702  0.18317919251266274  1.0000
  C   C6        1.0  0.9180657481378338  0.6630486022240782  0.8168208073774366  1.0000
  C   C7        1.0  0.03055549253482894  0.3635492588462883  0.20803250041574917  1.0000
  C   C8        1.0  0.969444507785737  0.8635492593038254  0.7919674994743501  1.0000
  C   C9        1.0  0.09025380815140284  0.43391696806149216  0.2953795976185652  1.0000
  C   C10       1.0  0.9097461910400735  0.9339169685190292  0.7046204022757121  1.0000
  C   C11       1.0  0.19804157303547512  0.30933388929754935  0.3552073962096945  1.0000
  C   C12       1.0  0.8019584272850908  0.8093338897550864  0.6447926036804047  1.0000
  C   C13       1.0  0.5154353015994029  0.8459324318776343  0.8318756769333385  1.0000
  C   C14       1.0  0.48456469872116303  0.3459324314200972  0.16812432295676075  1.0000
  C   C15       1.0  0.44182358946071854  0.6439194101772273  0.829016472464868  1.0000
  C   C16       1.0  0.5581764111347057  0.14391941134898623  0.17098352809361592  1.0000
  C   C17       1.0  0.32368325595477565  0.5903594346925242  0.7549753576425429  1.0000
  C   C18       1.0  0.6763167443657903  0.09035943586428305  0.24502464224755635  1.0000
  C   C19       1.0  0.2795275344575419  0.7342399091273504  0.6827611384915375  1.0000
  C   C20       1.0  0.720472465863024  0.2342399086698134  0.3172388613985618  1.0000
  C   C21       1.0  0.3581542917413411  0.9337925896969497  0.6863457355854435  1.0000
  C   C22       1.0  0.6418457088540832  0.43379258923941266  0.31365426497304055  1.0000
  C   C23       1.0  0.4757869176591564  0.9904740045415511  0.7599260860807747  1.0000
  C   C24       1.0  0.5242130826614095  0.4904740040840139  0.2400739138093246  1.0000
  C   C25       1.0  0.15527250523279984  0.6738350072661893  0.6021993001712448  1.0000
  C   C26       1.0  0.8447274950877661  0.17383500843794816  0.3978006997188545  1.0000
  N   N1        1.0  0.6289019049594514  0.16249944268509672  0.941646781826514  1.0000
  N   N2        1.0  0.37109809536111454  0.6624994431426338  0.058353218063585205  1.0000
  O   O1        1.0  0.6453469034506336  0.7554169159803414  0.9981838252046943  1.0000
  O   O2        1.0  0.35465309714479065  0.25541691552280443  0.0018161753537896854  1.0000
  F   F1        1.0  0.23653163506515615  0.8463513711110864  0.214720513582816  1.0000
  F   F2        1.0  0.7634683652554098  0.3463513722828452  0.7852794863072834  1.0000
  F   F3        1.0  0.027957656243462137  0.08669806086720622  0.09911481342044728  1.0000
  F   F4        1.0  0.9720423440771038  0.5866980596954473  0.900885186469652  1.0000
  F   F5        1.0  0.041699421013697655  0.6244402909846756  0.32463806504388004  1.0000
  F   F6        1.0  0.9583005793068683  0.12444029052713851  0.6753619348462193  1.0000
  F   F7        1.0  0.2496480695756401  0.3819731482361437  0.44027302520587674  1.0000
  F   F8        1.0  0.750351930744926  0.8819731486936808  0.5597269746842226  1.0000
  S   S1        1.0  0.6734323971155461  0.9081184865677906  0.9253437218986158  1.0000
  S   S2        1.0  0.3265676034798781  0.4081184861102534  0.07465627865986817  1.0000
  I   I1        1.0  0.40856279904680054  0.9243804811090062  0.4220273738110312  1.0000
  I   I2        1.0  0.5914372001446758  0.42438048065146905  0.577972626083246  1.0000
  I   I3        1.0  0.8710132465333457  0.5514174892667311  0.11631544371247672  1.0000
  I   I4        1.0  0.12898675265813073  0.051417488809193945  0.8836845561818005  1.0000
