data_image0
_chemical_formula_structural       H78C74N4O6F10P4S2
_chemical_formula_sum              "H78 C74 N4 O6 F10 P4 S2"
_cell_length_a       9.310329208475794
_cell_length_b       14.182527117390533
_cell_length_c       13.840267334712298
_cell_angle_alpha    90.0
_cell_angle_beta     104.23696228333854
_cell_angle_gamma    90.0

_space_group_name_H-M_alt    "P 1"
_space_group_IT_number       1

loop_
  _space_group_symop_operation_xyz
  'x, y, z'

loop_
  _atom_site_type_symbol
  _atom_site_label
  _atom_site_symmetry_multiplicity
  _atom_site_fract_x
  _atom_site_fract_y
  _atom_site_fract_z
  _atom_site_occupancy
  H   H1        1.0  0.8557657872192961  0.38517345144375775  0.30990718995182376  1.0000
  H   H2        1.0  0.14423421304300374  0.8851734515357537  0.6900928105037415  1.0000
  H   H3        1.0  0.043144198131684575  0.5286105034699481  0.6375609970592497  1.0000
  H   H4        1.0  0.9568558021306153  0.02861050337795216  0.3624390033963155  1.0000
  H   H5        1.0  0.31988007135940943  0.22061800651615432  0.2511113860324828  1.0000
  H   H6        1.0  0.6801199289028904  0.7206180059030572  0.7488886144230824  1.0000
  H   H7        1.0  0.6136832407946644  0.4897481529566772  0.8564086762597972  1.0000
  H   H8        1.0  0.3863167591954664  0.9897481530486729  0.14359132345034423  1.0000
  H   H9        1.0  0.6569933204817546  0.3689069886271898  0.8592446119648477  1.0000
  H   H10       1.0  0.3430066795083763  0.8689069887191856  0.1407553877452938  1.0000
  H   H11       1.0  0.7986093413039509  0.45303563792389784  0.8602761497557  1.0000
  H   H12       1.0  0.20139065868617997  0.9530356380158937  0.13972384995444154  1.0000
  H   H13       1.0  0.06236078211537375  0.28900728453210633  0.1978731672637087  1.0000
  H   H14       1.0  0.9376392178747572  0.7890072846241022  0.8021268324464328  1.0000
  H   H15       1.0  0.09263133417937287  0.2963434298564767  0.329449658639215  1.0000
  H   H16       1.0  0.907368666082927  0.7963434299484725  0.6705503418163502  1.0000
  H   H17       1.0  0.09121658474625513  0.4005580375752698  0.25716335525064027  1.0000
  H   H18       1.0  0.9087834152438758  0.9005580376672656  0.7428366444595014  1.0000
  H   H19       1.0  0.49075288487713975  0.24157378453371  0.41992257948127143  1.0000
  H   H20       1.0  0.5092471153851602  0.7415737846257059  0.5800774209742938  1.0000
  H   H21       1.0  0.6720305722232265  0.9619946845206733  0.4904973130933357  1.0000
  H   H22       1.0  0.32796942776690446  0.46199468442867747  0.5095026866168059  1.0000
  H   H23       1.0  0.5274462842993879  0.6075325982937614  0.9021941318877229  1.0000
  H   H24       1.0  0.4725537159629118  0.10753259820176551  0.09780586856784225  1.0000
  H   H25       1.0  0.5505563126874056  0.7143428463871715  0.9704539540222223  1.0000
  H   H26       1.0  0.4494436873027253  0.21434284629517567  0.029546045687919242  1.0000
  H   H27       1.0  0.48658755693745354  0.6117172791696559  0.021036635610192617  1.0000
  H   H28       1.0  0.5134124430526774  0.11171727907766006  0.9789633640999489  1.0000
  H   H29       1.0  0.3143738837491115  0.34245637747059204  0.12034590107743798  1.0000
  H   H30       1.0  0.6856261162410193  0.842456377562588  0.8796540986327036  1.0000
  H   H31       1.0  0.9021653674790291  0.23324683271317095  0.05706774047518512  1.0000
  H   H32       1.0  0.0978346325111019  0.7332468328051668  0.9429322592349565  1.0000
  H   H33       1.0  0.7562058599652169  0.2530115296307098  0.9505568495839579  1.0000
  H   H34       1.0  0.2437941400249139  0.7530115297227057  0.04944315012618358  1.0000
  H   H35       1.0  0.7169074564740817  0.21262249351192014  0.06173272271764259  1.0000
  H   H36       1.0  0.28309254351604923  0.7126224928988231  0.938267276992499  1.0000
  H   H37       1.0  0.7514586494309811  0.6539546368028714  0.09894537440289829  1.0000
  H   H38       1.0  0.2485413508313189  0.1539546367108755  0.9010546260526671  1.0000
  H   H39       1.0  0.5161116467313549  0.5817500831627571  0.4619142935603373  1.0000
  H   H40       1.0  0.4838883532587759  0.08175008307076123  0.5380857061498042  1.0000
  H   H41       1.0  0.6788955524626041  0.25059851608829  0.2369246570687029  1.0000
  H   H42       1.0  0.32110444779969566  0.7505985161802858  0.7630753433868623  1.0000
  H   H43       1.0  0.8316196698950497  0.22405897296705996  0.3375994844001378  1.0000
  H   H44       1.0  0.16838033036725014  0.7240589723539629  0.6624005160554274  1.0000
  H   H45       1.0  0.8364826842871425  0.1893080625037432  0.21560171356131555  1.0000
  H   H46       1.0  0.16351731570298841  0.689308062595739  0.784398286148826  1.0000
  H   H47       1.0  0.410187176536785  0.7682631973704809  0.27978252314235896  1.0000
  H   H48       1.0  0.589812823453346  0.268263197278485  0.7202174765677827  1.0000
  H   H49       1.0  0.5959714555461026  0.5982371187992539  0.6452953441781141  1.0000
  H   H50       1.0  0.4040285447161972  0.098237119412351  0.3547046562774512  1.0000
  H   H51       1.0  0.8777289666316516  0.7183554514418954  0.39682974141274946  1.0000
  H   H52       1.0  0.12227103335847922  0.21835545134989956  0.6031702582973921  1.0000
  H   H53       1.0  0.8968608576956152  0.8644319237695706  0.49654477741335756  1.0000
  H   H54       1.0  0.10313914122035066  0.36443192367757465  0.50345522229654  1.0000
  H   H55       1.0  0.47579342195327773  0.4804464270436529  0.15522163535849684  1.0000
  H   H56       1.0  0.5242065780368531  0.9804464271356488  0.8447783643516448  1.0000
  H   H57       1.0  0.42914688835890075  0.9137436024437078  0.3818822210087339  1.0000
  H   H58       1.0  0.5708531116312301  0.413743602351712  0.6181177787014077  1.0000
  H   H59       1.0  0.9457250781214226  0.6214367613789283  0.00591795119771908  1.0000
  H   H60       1.0  0.0542749218687083  0.12143676128693243  0.9940820485124225  1.0000
  H   H61       1.0  0.8325690279666562  0.7212453186468553  0.9633774129163932  1.0000
  H   H62       1.0  0.16743097229564355  0.22124531855485938  0.03662258753917186  1.0000
  H   H63       1.0  0.806142828166714  0.6141147299003024  0.8933989636577198  1.0000
  H   H64       1.0  0.19385717209558578  0.11411472980830646  0.10660103679784548  1.0000
  H   H65       1.0  0.9611823175419719  0.5089490060730507  0.45352086580827655  1.0000
  H   H66       1.0  0.03881768244815903  0.008949005981054817  0.5464791339018651  1.0000
  H   H67       1.0  0.6543213896326617  0.37968348908687094  0.4552432721342458  1.0000
  H   H68       1.0  0.34567861035746916  0.8796834891788669  0.5447567275758957  1.0000
  H   H69       1.0  0.8625171751338259  0.5719487051114823  0.733958314905049  1.0000
  H   H70       1.0  0.137482824856305  0.07194870572457948  0.2660416848050925  1.0000
  H   H71       1.0  0.7179397236566809  0.0329935558118006  0.6836926584184295  1.0000
  H   H72       1.0  0.28206027633344993  0.5329935559037965  0.31630734129171206  1.0000
  H   H73       1.0  0.958143078480195  0.3504513926791977  0.7207951039837076  1.0000
  H   H74       1.0  0.04185692178210484  0.8504513927711936  0.2792048964718576  1.0000
  H   H75       1.0  0.9440447039844511  0.2592946045201443  0.8712269683802488  1.0000
  H   H76       1.0  0.05595529600567982  0.75929460461214  0.12877303132989276  1.0000
  H   H77       1.0  0.8199606686039477  0.10039103033014098  0.8535155174851626  1.0000
  H   H78       1.0  0.18003933031201827  0.6003910304221369  0.1464844822247351  1.0000
  C   C1        1.0  0.8736226241157121  0.33962573384356354  0.2497361129935025  1.0000
  C   C2        1.0  0.1263773758744186  0.8396257339355595  0.7502638867166391  1.0000
  C   C3        1.0  0.9275656322359592  0.5407203065098733  0.5989188674200879  1.0000
  C   C4        1.0  0.07243436775417166  0.04072030641787754  0.40108113229005365  1.0000
  C   C5        1.0  0.39407972817579495  0.2810890186920011  0.26687679044837276  1.0000
  C   C6        1.0  0.6059202720865048  0.781089018783997  0.7331232100071924  1.0000
  C   C7        1.0  0.6997312508159014  0.43808474742004705  0.8876859915818041  1.0000
  C   C8        1.0  0.30026874944639836  0.9380847475120428  0.11231400887376114  1.0000
  C   C9        1.0  0.039842531246629606  0.33114653271074557  0.2588962934448981  1.0000
  C   C10       1.0  0.9601574687435013  0.8311465328027414  0.7411037062652434  1.0000
  C   C11       1.0  0.48897348541254315  0.29283522715126276  0.3610428138542543  1.0000
  C   C12       1.0  0.5110265145775876  0.7928352272432585  0.6389571858558872  1.0000
  C   C13       1.0  0.6637642673525685  0.8979642305343399  0.44619474979835  1.0000
  C   C14       1.0  0.3362357329097313  0.3979642304423441  0.5538052506572152  1.0000
  C   C15       1.0  0.5619885591420631  0.6375163082828343  0.9773118385641804  1.0000
  C   C16       1.0  0.43801144112023677  0.13751630819083843  0.022688161891384985  1.0000
  C   C17       1.0  0.7757207533591068  0.3594011115092333  0.0601702421824963  1.0000
  C   C18       1.0  0.22427924555685907  0.8594011116012291  0.9398297575274014  1.0000
  C   C19       1.0  0.39177909997101745  0.3487889096953938  0.1931567888968829  1.0000
  C   C20       1.0  0.6082209002912825  0.8487889097873896  0.8068432115586823  1.0000
  C   C21       1.0  0.6756117584136784  0.526610831636765  0.3348430928027108  1.0000
  C   C22       1.0  0.3243882407744564  0.026610831544769162  0.6651569076526105  1.0000
  C   C23       1.0  0.788369501127918  0.2595663833059767  0.03173088919688385  1.0000
  C   C24       1.0  0.21163049778804785  0.7595663833979726  0.9682691105130138  1.0000
  C   C25       1.0  0.5800809451536976  0.44029171094219816  0.3083254422400059  1.0000
  C   C26       1.0  0.4199190551086023  0.940291711034194  0.6916745582155593  1.0000
  C   C27       1.0  0.7228978634788523  0.6149597831056159  0.028312139500935515  1.0000
  C   C28       1.0  0.2771021367834475  0.1149597830136202  0.9716878609546297  1.0000
  C   C29       1.0  0.6316278607943772  0.5700282448314098  0.5004255360316203  1.0000
  C   C30       1.0  0.3683721391957539  0.07002824473941399  0.49957446367852126  1.0000
  C   C31       1.0  0.7368247337210082  0.43644700191758873  0.9983365027171633  1.0000
  C   C32       1.0  0.26317526654129164  0.9364470020095846  0.0016634977384019367  1.0000
  C   C33       1.0  0.7999652433459132  0.24504412586234736  0.2589090897826004  1.0000
  C   C34       1.0  0.2000347569163867  0.7450441259543432  0.7410909106729648  1.0000
  C   C35       1.0  0.7825477161628704  0.4874462296301941  0.15657305093371818  1.0000
  C   C36       1.0  0.21745228409942938  0.9874462297221899  0.843426949521847  1.0000
  C   C37       1.0  0.5169276779347808  0.789334001432866  0.3277326102637304  1.0000
  C   C38       1.0  0.4830723212533541  0.2893340013408702  0.672267390191591  1.0000
  C   C39       1.0  0.6772061197992225  0.5799704800080379  0.6035309257170435  1.0000
  C   C40       1.0  0.3227938801909083  0.07997047991604196  0.39646907399309794  1.0000
  C   C41       1.0  0.7793872504658803  0.7609070379824919  0.39346830039477637  1.0000
  C   C42       1.0  0.22061274952425067  0.2609070378904961  0.6065316993153652  1.0000
  C   C43       1.0  0.7327049247571885  0.5436311537558045  0.44506629048834634  1.0000
  C   C44       1.0  0.2672950752329424  0.04363115366380869  0.5549337092217953  1.0000
  C   C45       1.0  0.7896170743666164  0.8430405407326227  0.4499689121817152  1.0000
  C   C46       1.0  0.2103829256235144  0.34304054064062695  0.5500310875284263  1.0000
  C   C47       1.0  0.4838917062468057  0.42744135088355073  0.2134628546236724  1.0000
  C   C48       1.0  0.5161082937433251  0.9274413509755466  0.7865371450864691  1.0000
  C   C49       1.0  0.5273654505770732  0.8709545955920391  0.3850707973261918  1.0000
  C   C50       1.0  0.4726345496852266  0.37095459550004334  0.6149292031293734  1.0000
  C   C51       1.0  0.8331897468359547  0.6440696756221452  0.9686259372119358  1.0000
  C   C52       1.0  0.16681025342634506  0.14406967623524242  0.03137406324362933  1.0000
  C   C53       1.0  0.8811581179667614  0.5294651113899383  0.4955773235455658  1.0000
  C   C54       1.0  0.11884188202336948  0.029465111297942524  0.5044226761645758  1.0000
  C   C55       1.0  0.6429401174020875  0.7334319606020868  0.3317051086811302  1.0000
  C   C56       1.0  0.35705988258804333  0.23343196051009088  0.6682948910290114  1.0000
  C   C57       1.0  0.5813401824222727  0.37143875886128097  0.38135052936610203  1.0000
  C   C58       1.0  0.41865981756785814  0.8714387589532768  0.6186494703440395  1.0000
  C   C59       1.0  0.8254662661291415  0.5656783190749237  0.6532711988809088  1.0000
  C   C60       1.0  0.1745337338609894  0.06567831898292788  0.34672880082923285  1.0000
  C   C61       1.0  0.28566369959158056  0.410189463545364  0.8873116768278231  1.0000
  C   C62       1.0  0.7143363003985502  0.9101894636373599  0.11268832288231838  1.0000
  C   C63       1.0  0.7720497643511732  0.10174341695639191  0.6930819338022974  1.0000
  C   C64       1.0  0.22795023591112656  0.6017434170483877  0.30691806665326776  1.0000
  C   C65       1.0  0.7845780928891376  0.15304869731843498  0.6101611106660365  1.0000
  C   C66       1.0  0.2154219071009932  0.6530486967053379  0.38983888904410496  1.0000
  C   C67       1.0  0.8508619800892607  0.24183807100176857  0.620517929377641  1.0000
  C   C68       1.0  0.1491380201730392  0.7418380703886714  0.37948207107792437  1.0000
  C   C69       1.0  0.907147677474358  0.28087391034249837  0.7139479967778471  1.0000
  C   C70       1.0  0.09285232251577294  0.7808739104344942  0.2860520029322943  1.0000
  C   C71       1.0  0.8973689187899136  0.2288781987252248  0.7979273727861704  1.0000
  C   C72       1.0  0.10263108120021729  0.7288781988172207  0.20207262692397124  1.0000
  C   C73       1.0  0.829649329613876  0.14016734842427447  0.7878939074324449  1.0000
  C   C74       1.0  0.1703506703762548  0.6401673478111773  0.21210609227769664  1.0000
  N   N1        1.0  0.804448115273711  0.3925593030013096  0.15732843590034953  1.0000
  N   N2        1.0  0.19555188498858878  0.8925593030933053  0.8426715645552156  1.0000
  N   N3        1.0  0.7434343431598129  0.5147200332900294  0.05942417736522748  1.0000
  N   N4        1.0  0.25656565683031796  0.014720033198033571  0.9405758223449141  1.0000
  O   O1        1.0  0.0927907974872273  0.380047737288707  0.993465417208775  1.0000
  O   O2        1.0  0.9072092025029035  0.8800477373807029  0.006534582501366548  1.0000
  O   O3        1.0  0.02866714853807225  0.49209923747948503  0.8534584136291866  1.0000
  O   O4        1.0  0.9713328514520587  0.9920992375714809  0.14654158608095497  1.0000
  O   O5        1.0  0.21520431116535535  0.5354260617410458  0.006760518234670387  1.0000
  O   O6        1.0  0.7847956888247756  0.035426061649049975  0.9932394814754711  1.0000
  F   F1        1.0  0.2377986868178501  0.33039194434215524  0.834429204552002  1.0000
  F   F2        1.0  0.7622013131722808  0.830391944434151  0.16557079515813958  1.0000
  F   F3        1.0  0.32752992114227963  0.47239744260984046  0.8244959403915881  1.0000
  F   F4        1.0  0.6724700788478513  0.9723974427018363  0.1755040593185534  1.0000
  F   F5        1.0  0.40914109674196175  0.386717588805085  0.959433801559957  1.0000
  F   F6        1.0  0.5908589032481691  0.8867175888970809  0.040566198150184606  1.0000
  F   F7        1.0  0.7317737341325654  0.11804937696519956  0.5161618659570046  1.0000
  F   F8        1.0  0.2682262658575654  0.6180493770571954  0.4838381337531369  1.0000
  F   F9        1.0  0.8610142203049688  0.2890898191883289  0.5366624539505286  1.0000
  F   F10       1.0  0.13898577995733108  0.7890898192803247  0.46333754650503667  1.0000
  P   P1        1.0  0.6044347604786772  0.6305399747154069  0.2511170757994194  1.0000
  P   P2        1.0  0.39556523951145367  0.13053997532850406  0.7488829239107222  1.0000
  P   P3        1.0  0.8219419034092403  0.5628075535432946  0.26667851462203035  1.0000
  P   P4        1.0  0.1780580965808906  0.06280755415639172  0.7333214850881112  1.0000
  S   S1        1.0  0.13809320414868817  0.46056889198473394  0.9421850404361622  1.0000
  S   S2        1.0  0.8619067958414428  0.9605688920767297  0.05781495927397937  1.0000
