data_image0
_chemical_formula_structural       H36C34N8O12
_chemical_formula_sum              "H36 C34 N8 O12"
_cell_length_a       8.689417290536813
_cell_length_b       8.9695564059576
_cell_length_c       11.551189516461006
_cell_angle_alpha    80.61102543372462
_cell_angle_beta     70.09741861618848
_cell_angle_gamma    86.46334023204116

_space_group_name_H-M_alt    "P 1"
_space_group_IT_number       1

loop_
  _space_group_symop_operation_xyz
  'x, y, z'

loop_
  _atom_site_type_symbol
  _atom_site_label
  _atom_site_symmetry_multiplicity
  _atom_site_fract_x
  _atom_site_fract_y
  _atom_site_fract_z
  _atom_site_occupancy
  H   H1        1.0  0.576873976130139  0.9158230613781351  0.5841099798876649  1.0000
  H   H2        1.0  0.4231260237225766  0.08417693905744418  0.41589001940040804  1.0000
  H   H3        1.0  0.6410326904925042  0.7634699639697115  0.766818028073126  1.0000
  H   H4        1.0  0.35896730936525545  0.23653003646772341  0.2331819720791232  1.0000
  H   H5        1.0  0.9431907739131463  0.2832692800267439  0.7428261270284666  1.0000
  H   H6        1.0  0.05680922594461335  0.716730720410691  0.25717387312378265  1.0000
  H   H7        1.0  0.1073832644143829  0.3107576965776867  0.5962526698080929  1.0000
  H   H8        1.0  0.8926167354383328  0.6892423038578924  0.4037473294799801  1.0000
  H   H9        1.0  0.09023956361398625  0.42836260271651977  0.7117726451801838  1.0000
  H   H10       1.0  0.9097604362613483  0.571637396590905  0.28822735511210407  1.0000
  H   H11       1.0  0.2693321255682524  0.09970921735945235  0.09062252821316752  1.0000
  H   H12       1.0  0.7306678742895073  0.9002907830779826  0.9093774719390817  1.0000
  H   H13       1.0  0.18478934594973673  0.9228971740902114  0.0925596141760293  1.0000
  H   H14       1.0  0.8152106539080229  0.07710282634722353  0.9074403859762199  1.0000
  H   H15       1.0  0.06017115490050426  0.09010486711664588  0.10351523712144381  1.0000
  H   H16       1.0  0.9398288449572555  0.9098951333207889  0.8964847630308054  1.0000
  H   H17       1.0  0.5688796826248297  0.20887992927270632  0.9713511588559381  1.0000
  H   H18       1.0  0.43112031723293  0.7911200711647286  0.028648841296311116  1.0000
  H   H19       1.0  0.9151138586507911  0.009280311336576032  0.5967025435736307  1.0000
  H   H20       1.0  0.08488614120696858  0.990719689100859  0.4032974565786185  1.0000
  H   H21       1.0  0.7193494585154996  0.34314730906040686  0.6443822196916349  1.0000
  H   H22       1.0  0.28065054134226014  0.6568526913770282  0.3556177804606143  1.0000
  H   H23       1.0  0.586862890592724  0.5499877510806351  0.5374035443159175  1.0000
  H   H24       1.0  0.4131371092650357  0.4500122493567998  0.4625964558363317  1.0000
  H   H25       1.0  0.20725556678666204  0.5870793832641504  0.8878272593268174  1.0000
  H   H26       1.0  0.7927444330710977  0.4129206171732845  0.11217274082543187  1.0000
  H   H27       1.0  0.36710816185390016  0.7092307571024101  0.5341719276287361  1.0000
  H   H28       1.0  0.6328918379988155  0.2907692433331691  0.4658280716593368  1.0000
  H   H29       1.0  0.09173553258081009  0.7474728489368653  0.780113355361992  1.0000
  H   H30       1.0  0.9082644672769495  0.2525271515005697  0.2198866447902572  1.0000
  H   H31       1.0  0.09508198011792719  0.42600416407058145  0.06490434770218736  1.0000
  H   H32       1.0  0.9049180197574073  0.5739958352368433  0.9350956525901005  1.0000
  H   H33       1.0  0.21616394235477  0.5710521908304496  0.08079464130220547  1.0000
  H   H34       1.0  0.7838360575205645  0.428947808476975  0.9192053589900824  1.0000
  H   H35       1.0  0.1779596408408513  0.39924190764062983  0.18948198747674208  1.0000
  H   H36       1.0  0.8220403590169083  0.6007580927968051  0.8105180126755073  1.0000
  C   C1        1.0  0.5475340935778581  0.8504853492258465  0.775628828998403  1.0000
  C   C2        1.0  0.4524659062974764  0.14951465008157833  0.22437117129388465  1.0000
  C   C3        1.0  0.34907429336656187  0.999171443776405  0.8505988153947143  1.0000
  C   C4        1.0  0.6509257077275458  0.0008285555378888513  0.14940118371530467  1.0000
  C   C5        1.0  0.3911806119040502  0.02945752143992466  0.7215688741063228  1.0000
  C   C6        1.0  0.6088193879712843  0.9705424778675001  0.2784311261859651  1.0000
  C   C7        1.0  0.3023804464013776  0.13317125605709426  0.6611511390187605  1.0000
  C   C8        1.0  0.6976195534563819  0.8668287443803407  0.3388488611334887  1.0000
  C   C9        1.0  0.13529422741981406  0.18365382968304092  0.8756541629872713  1.0000
  C   C10       1.0  0.8647057724379457  0.8163461707543941  0.12434583716497799  1.0000
  C   C11       1.0  0.07192648126357412  0.31445655720806626  0.6960418740876743  1.0000
  C   C12       1.0  0.9280735185941856  0.6855434432293687  0.3039581260645751  1.0000
  C   C13       1.0  0.18221317698179257  0.044470757188909686  0.062213193328122064  1.0000
  C   C14       1.0  0.8177868240997842  0.9555292432572505  0.9377868065060346  1.0000
  C   C15       1.0  0.5416176941594169  0.35279251356982344  0.8249691264740605  1.0000
  C   C16       1.0  0.45838230693973486  0.6472074857463264  0.17503087350013471  1.0000
  C   C17       1.0  0.6085575392383725  0.3996567024872204  0.6963191252101366  1.0000
  C   C18       1.0  0.391442460636962  0.6003432968202042  0.3036808750821513  1.0000
  C   C19       1.0  0.5323199315882159  0.5118096031507927  0.6368540748967846  1.0000
  C   C20       1.0  0.46768006828207465  0.48819039615477616  0.36314592453132677  1.0000
  C   C21       1.0  0.38420986260368295  0.5782706858421878  0.703229082439559  1.0000
  C   C22       1.0  0.6157901372490328  0.42172931459339136  0.29677091684851375  1.0000
  C   C23       1.0  0.31891380188190493  0.5342043006658911  0.8337882913343213  1.0000
  C   C24       1.0  0.6810861979934296  0.4657956986415336  0.1662117089579665  1.0000
  C   C25       1.0  0.39697733317530687  0.4251644695303934  0.8944238446436764  1.0000
  C   C26       1.0  0.6030226666824529  0.5748355309070416  0.10557615550857284  1.0000
  C   C27       1.0  0.304433734755843  0.685767830057377  0.634751591279236  1.0000
  C   C28       1.0  0.6955662651194914  0.3142321692500477  0.3652484090130519  1.0000
  C   C29       1.0  0.16055459634678113  0.7596496791485295  0.6807755874109965  1.0000
  C   C30       1.0  0.8394454035109784  0.24035032128890538  0.3192244127412528  1.0000
  C   C31       1.0  0.09189034864922829  0.8616623108617941  0.599328253176033  1.0000
  C   C32       1.0  0.9081096512085314  0.13833768957564083  0.4006717469762164  1.0000
  C   C33       1.0  0.1995632485815055  0.44878231240647454  0.09221112866018064  1.0000
  C   C34       1.0  0.8004367512762541  0.5512176880309604  0.9077888714920687  1.0000
  N   N1        1.0  0.5195555862371104  0.9326030573850915  0.6762995540122093  1.0000
  N   N2        1.0  0.4804444136156052  0.06739694305048763  0.32370044527586356  1.0000
  N   N3        1.0  0.4466889894872324  0.8874748092850333  0.8844541133174841  1.0000
  N   N4        1.0  0.5533110103705273  0.11252519115240169  0.11554588683476502  1.0000
  N   N5        1.0  0.22380651979613098  0.07442795876921231  0.9270835451634918  1.0000
  N   N6        1.0  0.7761934800792034  0.9255720405382123  0.0729164551287961  1.0000
  N   N7        1.0  0.17543765947530618  0.20581849905749916  0.7455633165890656  1.0000
  N   N8        1.0  0.8245623403824535  0.7941815013799358  0.2544366835631837  1.0000
  O   O1        1.0  0.023193587439301364  0.25700711496092127  0.9406907999576177  1.0000
  O   O2        1.0  0.9768064124184583  0.7429928854765138  0.059309200194631595  1.0000
  O   O3        1.0  0.3262109359955774  0.16121952859614858  0.5467471503868013  1.0000
  O   O4        1.0  0.6737890638797571  0.8387804707112761  0.45325284990548653  1.0000
  O   O5        1.0  0.6181426679675242  0.2418587087981453  0.8776175353923735  1.0000
  O   O6        1.0  0.38185733188519144  0.7581412916374338  0.1223824638956993  1.0000
  O   O7        1.0  0.3448107250190499  0.377177051690089  0.01986020156920118  1.0000
  O   O8        1.0  0.6551892748562846  0.6228229476173357  0.9801397987230865  1.0000
  O   O9        1.0  0.15427365708770532  0.8796006059129577  0.48241136573226373  1.0000
  O   O10       1.0  0.8457263439938716  0.12039939453320232  0.5175886341018929  1.0000
  O   O11       1.0  0.9570109399819422  0.9336360015755465  0.6590331651098232  1.0000
  O   O12       1.0  0.042989059888348335  0.06636399773002234  0.34096683431828817  1.0000
