data_image0
_chemical_formula_structural       H140C96N16O10
_chemical_formula_sum              "H140 C96 N16 O10"
_cell_length_a       11.858963967838422
_cell_length_b       12.357415431092921
_cell_length_c       18.266589466756617
_cell_angle_alpha    103.39712357334167
_cell_angle_beta     95.05576439418323
_cell_angle_gamma    117.22959700079588

_space_group_name_H-M_alt    "P 1"
_space_group_IT_number       1

loop_
  _space_group_symop_operation_xyz
  'x, y, z'

loop_
  _atom_site_type_symbol
  _atom_site_label
  _atom_site_symmetry_multiplicity
  _atom_site_fract_x
  _atom_site_fract_y
  _atom_site_fract_z
  _atom_site_occupancy
  H   H1        1.0  0.5384067969243017  0.1323878362055999  0.22195707634179324  1.0000
  H   H2        1.0  0.46159320267026027  0.8676121638151693  0.7780429234895895  1.0000
  H   H3        1.0  0.6439798607981501  0.3417910589173037  0.18762519613236664  1.0000
  H   H4        1.0  0.35602013879641203  0.6582089411034655  0.8123748036990162  1.0000
  H   H5        1.0  0.7171505172450697  0.6026290051630994  0.19339951410100714  1.0000
  H   H6        1.0  0.28284948234949253  0.39737099485766997  0.8066004857303756  1.0000
  H   H7        1.0  0.7793749229298679  0.5934559253540264  0.2826577981041636  1.0000
  H   H8        1.0  0.2206250775111752  0.4065440746666308  0.7173422017750956  1.0000
  H   H9        1.0  0.5537164738340593  0.4343838024448759  0.2853371314388385  1.0000
  H   H10       1.0  0.44628352576050295  0.5656161975758934  0.7146628683925442  1.0000
  H   H11       1.0  0.570544732459172  0.582321755254359  0.28075258179388685  1.0000
  H   H12       1.0  0.42945526798187084  0.417678244766298  0.7192474180853723  1.0000
  H   H13       1.0  0.9891653475944412  0.4576008944845151  0.0796759980261848  1.0000
  H   H14       1.0  0.010834652846601704  0.542399105536142  0.9203240018530744  1.0000
  H   H15       1.0  0.9080440229410899  0.29079765148637127  0.03279861894240311  1.0000
  H   H16       1.0  0.09195597665347206  0.7092023485343979  0.9672013808889797  1.0000
  H   H17       1.0  0.12811522669270123  0.36442178204768205  0.11279365942162815  1.0000
  H   H18       1.0  0.8718847729018608  0.6355782179730871  0.8872063404097545  1.0000
  H   H19       1.0  0.006314130028677036  0.26078404007002104  0.15128555520210146  1.0000
  H   H20       1.0  0.9936858695658851  0.7392159599507482  0.8487144446292813  1.0000
  H   H21       1.0  0.0856978300084624  0.4291403166295507  0.19646951878984983  1.0000
  H   H22       1.0  0.9143021704335729  0.5708596833914348  0.8035304816369649  1.0000
  H   H23       1.0  0.7183556149122872  0.21849294086305546  0.17880841384500198  1.0000
  H   H24       1.0  0.2816443855297482  0.7815070591579302  0.8211915865818127  1.0000
  H   H25       1.0  0.7955197529734229  0.16402184547240417  0.11468245359177483  1.0000
  H   H26       1.0  0.20448024746761995  0.8359781545482529  0.8853175462874844  1.0000
  H   H27       1.0  0.6429304599947652  0.141281770114669  0.0012332560204791287  1.0000
  H   H28       1.0  0.3570695404462777  0.858718229905988  0.9987667438587801  1.0000
  H   H29       1.0  0.5647304234459671  0.201719932904159  0.06389779664466262  1.0000
  H   H30       1.0  0.4352695769960681  0.7982800671168264  0.936102203782152  1.0000
  H   H31       1.0  0.5572260957367601  0.054786285160468025  0.06221939100387188  1.0000
  H   H32       1.0  0.4427739038578021  0.9452137148603013  0.9377806088275108  1.0000
  H   H33       1.0  0.34590194428303206  0.4269601197918096  0.05818263905358667  1.0000
  H   H34       1.0  0.6540980553115301  0.5730398802289597  0.941817360777796  1.0000
  H   H35       1.0  0.2264594848412868  0.2812294906413461  0.9877920471029362  1.0000
  H   H36       1.0  0.7735405155997562  0.7187705093793111  0.012207952776323088  1.0000
  H   H37       1.0  0.4422150640221631  0.373976182877915  0.9513923426264265  1.0000
  H   H38       1.0  0.557784935572399  0.6260238171428542  0.04860765720495618  1.0000
  H   H39       1.0  0.4021459035780021  0.2232301254822722  0.9633386333628212  1.0000
  H   H40       1.0  0.59785409601656  0.7767698745384971  0.0366613664685615  1.0000
  H   H41       1.0  0.5169072022676331  0.3665878123965942  0.03726903552024183  1.0000
  H   H42       1.0  0.4830927981734098  0.6334121876240629  0.9627309643590173  1.0000
  H   H43       1.0  0.10557727994881805  0.11949161401363954  0.02699963965277281  1.0000
  H   H44       1.0  0.8944227204922249  0.8805083860070175  0.9730003602264864  1.0000
  H   H45       1.0  0.14592643988481008  0.1106795732814388  0.11993759361016114  1.0000
  H   H46       1.0  0.854073559709752  0.8893204267393303  0.8800624062212214  1.0000
  H   H47       1.0  0.26196464747477904  0.046355316089672485  0.9824391538775987  1.0000
  H   H48       1.0  0.7380353529672563  0.953644683931313  0.017560846549215848  1.0000
  H   H49       1.0  0.14811248651989808  0.9359478651064693  0.022162074937017124  1.0000
  H   H50       1.0  0.8518875130756564  0.06405213491462827  0.977837925441921  1.0000
  H   H51       1.0  0.30934744371176226  0.04670106926229474  0.07740206634439549  1.0000
  H   H52       1.0  0.6906525558827998  0.9532989307584745  0.9225979334869873  1.0000
  H   H53       1.0  0.8485066868054566  0.5677209242896045  0.04642372549818474  1.0000
  H   H54       1.0  0.1514933127900978  0.4322790757314931  0.9535762748807536  1.0000
  H   H55       1.0  0.007531670366252986  0.7961279768641292  0.06366562773808408  1.0000
  H   H56       1.0  0.9924683300757824  0.20387202315685637  0.9363343726887307  1.0000
  H   H57       1.0  0.16285308090546294  0.9334539606794646  0.19161091533335736  1.0000
  H   H58       1.0  0.83714691953558  0.06654603934119241  0.8083890845459019  1.0000
  H   H59       1.0  0.15592740102301897  0.8463534080665568  0.300776448676556  1.0000
  H   H60       1.0  0.844072598571543  0.1536465919542122  0.6992235511548267  1.0000
  H   H61       1.0  0.2005969475838068  0.3156623575733711  0.24998648423200204  1.0000
  H   H62       1.0  0.7994030528572362  0.684337642447286  0.7500135156472572  1.0000
  H   H63       1.0  0.15025043129456075  0.21792553953580032  0.3559360116271531  1.0000
  H   H64       1.0  0.8497495683009937  0.7820744604852973  0.6440639887517853  1.0000
  H   H65       1.0  0.2594172046760943  0.09562338459454064  0.386245522330095  1.0000
  H   H66       1.0  0.7405827957649487  0.9043766154261165  0.6137544775491641  1.0000
  H   H67       1.0  0.42117266995519337  0.08098277644124056  0.31323195538366094  1.0000
  H   H68       1.0  0.578827330486842  0.9190172235797451  0.6867680450431538  1.0000
  H   H69       1.0  0.9200430907272883  0.33441050670428263  0.6393145320669374  1.0000
  H   H70       1.0  0.07995690886727383  0.6655894933164866  0.3606854677644452  1.0000
  H   H71       1.0  0.6461987878809531  0.1380701304052816  0.3455117502668017  1.0000
  H   H72       1.0  0.3538012125610821  0.8619298696157038  0.6544882501600129  1.0000
  H   H73       1.0  0.4868173882813603  0.8675613511012357  0.4127999625009379  1.0000
  H   H74       1.0  0.5131826113132019  0.1324386489195335  0.5872000373304448  1.0000
  H   H75       1.0  0.46266966323297487  0.9079066881074365  0.3285811860381885  1.0000
  H   H76       1.0  0.537330337208068  0.09209331191322062  0.6714188138410707  1.0000
  H   H77       1.0  0.46937248103910495  0.06697367680692405  0.4389816306009457  1.0000
  H   H78       1.0  0.5306275185554571  0.933026323213845  0.561018369230437  1.0000
  H   H79       1.0  0.6137582339599538  0.08533746394859577  0.4917543301088305  1.0000
  H   H80       1.0  0.3862417656346084  0.9146625360721734  0.5082456697225524  1.0000
  H   H81       1.0  0.710901664690246  0.804574633992443  0.1703920691337507  1.0000
  H   H82       1.0  0.2890983349043163  0.19542536602832633  0.8296079306976321  1.0000
  H   H83       1.0  0.8664848712818248  0.8341281956067378  0.21244108657737187  1.0000
  H   H84       1.0  0.13351512916021044  0.16587180441424781  0.7875589138494429  1.0000
  H   H85       1.0  0.8852732883655636  0.9610446313309216  0.12172251057814337  1.0000
  H   H86       1.0  0.11472671207547946  0.03895536868973552  0.8782774893011159  1.0000
  H   H87       1.0  0.9606747530591315  0.06686972204141234  0.21724306226249537  1.0000
  H   H88       1.0  0.039325247382903786  0.9331302779795729  0.7827569381643193  1.0000
  H   H89       1.0  0.8023795255247556  0.03188640512149235  0.17367699192528194  1.0000
  H   H90       1.0  0.19762047406980643  0.968113594899277  0.8263230079061008  1.0000
  H   H91       1.0  0.894059791221272  0.04464300415041242  0.3948240251174117  1.0000
  H   H92       1.0  0.10594020837329013  0.9553569958703567  0.605175974713971  1.0000
  H   H93       1.0  0.9809689723248958  0.002266731246591436  0.3300870737870321  1.0000
  H   H94       1.0  0.01903102811614722  0.9977332687740658  0.6699129260922271  1.0000
  H   H95       1.0  0.8897340025344862  0.7867112606584272  0.34845424101493405  1.0000
  H   H96       1.0  0.11026599706007592  0.21328873936234197  0.6515457588164486  1.0000
  H   H97       1.0  0.796492511644936  0.8248413792893339  0.4109874008206198  1.0000
  H   H98       1.0  0.20350748879610706  0.17515862073132335  0.5890125990586395  1.0000
  H   H99       1.0  0.9704179355849978  0.907694664190268  0.43836061624983763  1.0000
  H   H100      1.0  0.02958206400956432  0.0923053358305013  0.5616393835815451  1.0000
  H   H101      1.0  0.8543800424711514  0.44288202674963206  0.3265584183595968  1.0000
  H   H102      1.0  0.14561995712440304  0.5571179732714655  0.6734415820193415  1.0000
  H   H103      1.0  0.7195397818398981  0.2867259798018977  0.30199865151028515  1.0000
  H   H104      1.0  0.28046021775466407  0.7132740202188715  0.6980013483210975  1.0000
  H   H105      1.0  0.9106190055500069  0.270891008823964  0.2733599638635421  1.0000
  H   H106      1.0  0.08938099489202843  0.7291089911970215  0.7266400365632726  1.0000
  H   H107      1.0  0.8739185352843838  0.21380046678349166  0.35355603254707174  1.0000
  H   H108      1.0  0.12608146431117062  0.7861995332376058  0.6464439678318665  1.0000
  H   H109      1.0  0.005362331401736448  0.37070250001455257  0.36694965421671394  1.0000
  H   H110      1.0  0.9946376690393066  0.6292975000061046  0.6330503456625453  1.0000
  H   H111      1.0  0.9616178328515548  0.5593210845235262  0.45565093762365666  1.0000
  H   H112      1.0  0.0383821667439997  0.4406789154975714  0.5443490627552817  1.0000
  H   H113      1.0  0.8765108789743281  0.5194233654286666  0.5287518601916983  1.0000
  H   H114      1.0  0.12348912062023379  0.48057663459210254  0.47124813963968437  1.0000
  H   H115      1.0  0.7815866447511309  0.5886150289732398  0.3937088682490619  1.0000
  H   H116      1.0  0.21841335568991208  0.4113849710474174  0.6062911316301973  1.0000
  H   H117      1.0  0.8613445188533159  0.6946303134796435  0.48806899940143716  1.0000
  H   H118      1.0  0.13865548074124628  0.30536968654112573  0.5119310004299457  1.0000
  H   H119      1.0  0.704980604452916  0.5586081404505888  0.47228556750110334  1.0000
  H   H120      1.0  0.29501939514164593  0.44139185957018034  0.5277144323302794  1.0000
  H   H121      1.0  0.5119568890767203  0.6595829087178523  0.2086854926472536  1.0000
  H   H122      1.0  0.48804311136432255  0.34041709130280473  0.7913145072320056  1.0000
  H   H123      1.0  0.3103472118584781  0.5700986687446917  0.11054161559348118  1.0000
  H   H124      1.0  0.6896527877360841  0.4299013312760775  0.8894583842379016  1.0000
  H   H125      1.0  0.23935543943647067  0.7178283938602991  0.07561176112173258  1.0000
  H   H126      1.0  0.7606445610055645  0.2821716061606864  0.9243882393050821  1.0000
  H   H127      1.0  0.37631270437998837  0.9520228533958829  0.13681718137989124  1.0000
  H   H128      1.0  0.6236872960610546  0.047977146624774154  0.863182818499368  1.0000
  H   H129      1.0  0.5235472089315426  0.34435610235137176  0.4751498619030681  1.0000
  H   H130      1.0  0.4764527906630195  0.6556438976693975  0.5248501379283147  1.0000
  H   H131      1.0  0.4818089588250196  0.4202599936387404  0.6034059939844787  1.0000
  H   H132      1.0  0.5181910416170158  0.5797400063822451  0.39659400644233606  1.0000
  H   H133      1.0  0.6213716868147331  0.44148369271939275  0.7231795945183672  1.0000
  H   H134      1.0  0.37862831362730226  0.5585163073015927  0.2768204059084474  1.0000
  H   H135      1.0  0.7901121638963597  0.3783541038782639  0.7141703755576736  1.0000
  H   H136      1.0  0.20988783654567553  0.6216458961427215  0.28582962486914115  1.0000
  H   H137      1.0  0.7479960338837917  0.996909418175335  0.470207964524623  1.0000
  H   H138      1.0  0.2520039657107704  0.0030905818454342007  0.5297920353067597  1.0000
  H   H139      1.0  0.8127320288047903  0.11980787562289974  0.5425747636039241  1.0000
  H   H140      1.0  0.1872679716362527  0.8801921243977573  0.45742523627533505  1.0000
  C   C1        1.0  0.8170310010120343  0.44639656150273194  0.1569015832632219  1.0000
  C   C2        1.0  0.1829689985825279  0.5536034385180374  0.8430984165681609  1.0000
  C   C3        1.0  0.7028607822416026  0.5395863367675976  0.22935421021515373  1.0000
  C   C4        1.0  0.2971392181994402  0.46041366325305955  0.7706457896641055  1.0000
  C   C5        1.0  0.5692625456472938  0.4950906000290844  0.24714391821972556  1.0000
  C   C6        1.0  0.4307374539482606  0.5049093999920132  0.7528560821592127  1.0000
  C   C7        1.0  0.373056423092447  0.32265639184945355  0.16280061147188524  1.0000
  C   C8        1.0  0.626943577348596  0.6773436081712035  0.837199388407374  1.0000
  C   C9        1.0  0.9458549143578964  0.364273000268009  0.08963005226299221  1.0000
  C   C10       1.0  0.05414508523765801  0.6357269997530886  0.9103699481159461  1.0000
  C   C11       1.0  0.0469624370152516  0.35389614053042723  0.1406581579475759  1.0000
  C   C12       1.0  0.9530375625803029  0.6461038594906705  0.8593418424313625  1.0000
  C   C13       1.0  0.7423978155473001  0.21721614133561545  0.12212171199361174  1.0000
  C   C14       1.0  0.25760218404726193  0.7827838586851535  0.8778782878377711  1.0000
  C   C15       1.0  0.6199984324336614  0.15055676360180653  0.05839120346126418  1.0000
  C   C16       1.0  0.3800015680073815  0.8494432364188506  0.9416087964179949  1.0000
  C   C17       1.0  0.3175220182724689  0.32614753346262015  0.03164651980455732  1.0000
  C   C18       1.0  0.682477982168574  0.673852466558037  0.9683534800747018  1.0000
  C   C19       1.0  0.4256813070933821  0.3212294457371473  0.9937829374657886  1.0000
  C   C20       1.0  0.5743186925011801  0.678770554283622  0.0062170623655941415  1.0000
  C   C21       1.0  0.1850170920402714  0.13023136536343496  0.06932977351697237  1.0000
  C   C22       1.0  0.8149829084007715  0.8697686346572221  0.9306702263622867  1.0000
  C   C23       1.0  0.228764083812492  0.034212972412027774  0.03560619965399035  1.0000
  C   C24       1.0  0.771235916628551  0.9657870276086293  0.9643938002252689  1.0000
  C   C25       1.0  0.9148030495874061  0.5790025189165642  0.16305324420041437  1.0000
  C   C26       1.0  0.0851969503735078  0.4209974801477896  0.8369467555016675  1.0000
  C   C27       1.0  0.9178498430582581  0.6289088715786084  0.10152360413627178  1.0000
  C   C28       1.0  0.08215015653630398  0.37109112844216074  0.8984763956951111  1.0000
  C   C29       1.0  0.00681879848496364  0.7564007317468663  0.11110082971458622  1.0000
  C   C30       1.0  0.9931812019560793  0.2435992682737909  0.888899170164673  1.0000
  C   C31       1.0  0.09288927358165396  0.8334025225956718  0.18296794766289362  1.0000
  C   C32       1.0  0.9071107268593889  0.16659747742498518  0.8170320522163654  1.0000
  C   C33       1.0  0.09028394459797219  0.7851545825544601  0.24471404261276872  1.0000
  C   C34       1.0  0.9097160558430709  0.21484541746619715  0.7552859572664906  1.0000
  C   C35       1.0  0.0001246718935749714  0.6562300821670932  0.23713604359589144  1.0000
  C   C36       1.0  0.9998753277009871  0.34376991785367605  0.7628639562354913  1.0000
  C   C37       1.0  0.3401611037228849  0.25617444798413364  0.22306508749425977  1.0000
  C   C38       1.0  0.6598388958716772  0.7438255520366356  0.776934912337123  1.0000
  C   C39       1.0  0.2487244444275999  0.2639762068345175  0.26448218411251273  1.0000
  C   C40       1.0  0.7512755560134431  0.7360237931861396  0.7355178157667465  1.0000
  C   C41       1.0  0.22016907293661997  0.208788487381525  0.32370280171505855  1.0000
  C   C42       1.0  0.7798309266589344  0.7912115126395726  0.6762971986638797  1.0000
  C   C43       1.0  0.2821463343953367  0.14199706107394172  0.3411286422979717  1.0000
  C   C44       1.0  0.7178536660457063  0.8580029389467154  0.6588713575812876  1.0000
  C   C45       1.0  0.373825624972209  0.13404453033853622  0.30062269015451304  1.0000
  C   C46       1.0  0.6261743754688339  0.865955469682121  0.6993773097247462  1.0000
  C   C47       1.0  0.4068996567576345  0.193515749398574  0.2426357626665437  1.0000
  C   C48       1.0  0.5931003436834086  0.8064842506220833  0.7573642372127155  1.0000
  C   C49       1.0  0.6674963741171592  0.9065293011565547  0.2991206452687919  1.0000
  C   C50       1.0  0.33250362547740286  0.09347069886421443  0.7008793545625908  1.0000
  C   C51       1.0  0.5339689011858659  0.937674441205708  0.3822427758086186  1.0000
  C   C52       1.0  0.46603109925517705  0.062325558814949084  0.6177572240706406  1.0000
  C   C53       1.0  0.5613558401287725  0.06717055405667004  0.4339548774364638  1.0000
  C   C54       1.0  0.4386441594657897  0.9328294459640992  0.5660451223949189  1.0000
  C   C55       1.0  0.7099039139488178  0.290585986309966  0.4458599841915208  1.0000
  C   C56       1.0  0.2900960864922252  0.709414013710691  0.5541400156877384  1.0000
  C   C57       1.0  0.8041429707638907  0.8777099311206283  0.2096938429733816  1.0000
  C   C58       1.0  0.19585702883166384  0.12229006890046928  0.7903061574055567  1.0000
  C   C59       1.0  0.8670538102324812  0.9914557124643342  0.17880302006549167  1.0000
  C   C60       1.0  0.1329461893630733  0.00854428755676335  0.8211969803134466  1.0000
  C   C61       1.0  0.8919236184600663  0.9642639191794296  0.35212450616388047  1.0000
  C   C62       1.0  0.10807638198097658  0.035736080841227626  0.6478754937153787  1.0000
  C   C63       1.0  0.8861784506455935  0.8646410479566594  0.3898337094410888  1.0000
  C   C64       1.0  0.11382154979544935  0.1353589520639976  0.6101662904381704  1.0000
  C   C65       1.0  0.8143023238216759  0.35361525024157  0.3417219106827524  1.0000
  C   C66       1.0  0.18569767577288618  0.6463847497791992  0.6582780891486304  1.0000
  C   C67       1.0  0.9063324746674363  0.2988096736527538  0.3341217236228252  1.0000
  C   C68       1.0  0.09366752577459904  0.7011903263682316  0.6658782768039895  1.0000
  C   C69       1.0  0.8643968659061543  0.5172763005121686  0.4682779481315727  1.0000
  C   C70       1.0  0.13560313453588102  0.4827236995088169  0.531722052295242  1.0000
  C   C71       1.0  0.7982473686879191  0.5935095352393933  0.45461728526368744  1.0000
  C   C72       1.0  0.2017526309066431  0.406490464781376  0.5453827145676954  1.0000
  C   C73       1.0  0.5586410637724312  0.8560217672959138  0.23028084647983363  1.0000
  C   C74       1.0  0.4413589358221309  0.1439782327248553  0.7697191533515492  1.0000
  C   C75       1.0  0.48247419554615556  0.7244242414400223  0.19338738903977656  1.0000
  C   C76       1.0  0.5175258040484065  0.27557575858074695  0.8066126107916061  1.0000
  C   C77       1.0  0.3685544770411201  0.6732341067942509  0.13734399535749622  1.0000
  C   C78       1.0  0.6314455234009152  0.32676589322673466  0.8626560050693185  1.0000
  C   C79       1.0  0.33030023083245463  0.7558847902152949  0.11745995599742609  1.0000
  C   C80       1.0  0.6696997687621075  0.24411520980547433  0.8825400438339567  1.0000
  C   C81       1.0  0.4066998478769476  0.8874644331002877  0.15169481719931344  1.0000
  C   C82       1.0  0.5933001525640954  0.11253556692036948  0.8483051826799458  1.0000
  C   C83       1.0  0.5226124340850673  0.9412177298545884  0.20855168341156546  1.0000
  C   C84       1.0  0.4773875663559757  0.058782270166068774  0.7914483164676936  1.0000
  C   C85       1.0  0.684673437663413  0.32713325958620876  0.523437869650122  1.0000
  C   C86       1.0  0.31532656145201243  0.6728667394785856  0.476562130551639  1.0000
  C   C87       1.0  0.5833628344062324  0.35542109675391487  0.5283139524474684  1.0000
  C   C88       1.0  0.41663716518832977  0.6445789032668544  0.4716860473839144  1.0000
  C   C89       1.0  0.5598600172046391  0.3972251212276691  0.599879160369108  1.0000
  C   C90       1.0  0.44013998238992313  0.6027748787931001  0.4001208394622748  1.0000
  C   C91       1.0  0.6373568936075518  0.4082750530437347  0.66650074431597  1.0000
  C   C92       1.0  0.36264310598701033  0.5917249469770345  0.33349925551541276  1.0000
  C   C93       1.0  0.734621572852146  0.3752628724759852  0.6621904450617166  1.0000
  C   C94       1.0  0.2653784267424161  0.6247371275447839  0.33780955476966606  1.0000
  C   C95       1.0  0.7604860093745776  0.334030226226847  0.5902440139335472  1.0000
  C   C96       1.0  0.23951399106745777  0.6659697737941386  0.4097559864932675  1.0000
  N   N1        1.0  0.8334441711685014  0.3478977721595025  0.12352509995854256  1.0000
  N   N2        1.0  0.1665558292725415  0.6521022278611547  0.8764748999207166  1.0000
  N   N3        1.0  0.7150313646296762  0.4303865557960547  0.18753499910210017  1.0000
  N   N4        1.0  0.2849686358113668  0.5696134442246025  0.812465000777159  1.0000
  N   N5        1.0  0.4735665011203821  0.4344597061643311  0.17501846218792524  1.0000
  N   N6        1.0  0.52643349847418  0.565540293856438  0.8249815376434575  1.0000
  N   N7        1.0  0.28774128370738117  0.26338674118602223  0.09178022994771819  1.0000
  N   N8        1.0  0.7122587158871809  0.736613258834747  0.9082197698836646  1.0000
  N   N9        1.0  0.781914798765345  0.9126736162525542  0.2867632335245268  1.0000
  N   N10       1.0  0.21808520083020955  0.08732638376854342  0.7132367668544114  1.0000
  N   N11       1.0  0.6547749310623241  0.9419103158517689  0.3696090430784411  1.0000
  N   N12       1.0  0.345225068532238  0.058089684169000295  0.6303909567529417  1.0000
  N   N13       1.0  0.6437904107110549  0.16888434283258086  0.40330012963405226  1.0000
  N   N14       1.0  0.3562095897299879  0.8311156571880762  0.5966998702452069  1.0000
  N   N15       1.0  0.7925052438986361  0.38253018925628296  0.42001289567274236  1.0000
  N   N16       1.0  0.20749475654339922  0.6174698107647025  0.5799871047540724  1.0000
  O   O1        1.0  0.9900304458783636  0.6060360411338641  0.29381346322923635  1.0000
  O   O2        1.0  0.009969554563671476  0.3939639588871214  0.7061865371975783  1.0000
  O   O3        1.0  0.5002085489606947  0.19251628537070697  0.20530172696191218  1.0000
  O   O4        1.0  0.49979145148034826  0.8074837146499501  0.794698272917347  1.0000
  O   O5        1.0  0.5940615204945908  0.06722188736669901  0.24264376079404162  1.0000
  O   O6        1.0  0.4059384799474444  0.9327781126542865  0.7573562396327732  1.0000
  O   O7        1.0  0.8535175852057658  0.30111842835651775  0.5827333741062783  1.0000
  O   O8        1.0  0.14648241438879642  0.6988815716642515  0.41726662572510437  1.0000
  O   O9        1.0  0.783162243242013  0.027912288337062236  0.5272865519805919  1.0000
  O   O10       1.0  0.216837756352549  0.972087711683707  0.4727134478507908  1.0000
