data_image0
_chemical_formula_structural       H64C104N32O48
_chemical_formula_sum              "H64 C104 N32 O48"
_cell_length_a       30.860100665465225
_cell_length_b       5.910403363483716
_cell_length_c       14.320846644436099
_cell_angle_alpha    90.0
_cell_angle_beta     88.92379974823159
_cell_angle_gamma    90.0

_space_group_name_H-M_alt    "P 1"
_space_group_IT_number       1

loop_
  _space_group_symop_operation_xyz
  'x, y, z'

loop_
  _atom_site_type_symbol
  _atom_site_label
  _atom_site_symmetry_multiplicity
  _atom_site_fract_x
  _atom_site_fract_y
  _atom_site_fract_z
  _atom_site_occupancy
  H   H1        1.0  0.3772962480316651  0.6062688973376482  0.629585912349133  1.0000
  H   H2        1.0  0.6227037520965756  0.6062688973376482  0.8704140877092897  1.0000
  H   H3        1.0  0.877296107903137  0.1062685270992724  0.6295860509316278  1.0000
  H   H4        1.0  0.12270389190103595  0.1062685270992724  0.8704139491300272  1.0000
  H   H5        1.0  0.6227039278373774  0.3937321307675267  0.3704139127174512  1.0000
  H   H6        1.0  0.3772960721520472  0.3937321307675267  0.1295860872472885  1.0000
  H   H7        1.0  0.12270416861863936  0.8937330627272937  0.3704134972817313  1.0000
  H   H8        1.0  0.8772958313707853  0.8937330627272937  0.12958650268300836  1.0000
  H   H9        1.0  0.33750624662050743  0.015695998106179946  0.7902300077902732  1.0000
  H   H10       1.0  0.6624937535077332  0.015695998106179946  0.7097699922681494  1.0000
  H   H11       1.0  0.8375062651563515  0.515695730486229  0.7902303123949012  1.0000
  H   H12       1.0  0.1624937346524089  0.515695730486229  0.7097696869683554  1.0000
  H   H13       1.0  0.6624936654607113  0.9843050993682029  0.20976972074124153  1.0000
  H   H14       1.0  0.33750633452871326  0.9843050993682029  0.2902302792234981  1.0000
  H   H15       1.0  0.16249387723550845  0.4843061317413732  0.20976903463398366  1.0000
  H   H16       1.0  0.8375061227539162  0.4843061317413732  0.290230965330756  1.0000
  H   H17       1.0  0.2641650524339416  0.004166436448676714  0.47785961164680957  1.0000
  H   H18       1.0  0.735834947555483  0.004166436448676714  0.022140388317930106  1.0000
  H   H19       1.0  0.7641652392416364  0.5041650013957139  0.4778594089657423  1.0000
  H   H20       1.0  0.2358347607432008  0.5041650013957139  0.022140591697395805  1.0000
  H   H21       1.0  0.7358347400360469  0.9958361110113455  0.5221406160031807  1.0000
  H   H22       1.0  0.26416525976812605  0.9958361110113455  0.9778593840584742  1.0000
  H   H23       1.0  0.2358346358857532  0.4958381297808143  0.5221400748125512  1.0000
  H   H24       1.0  0.7641653642470749  0.4958381297808143  0.9778599245474731  1.0000
  H   H25       1.0  0.509073515256291  0.11247139647135379  0.6700298428706214  1.0000
  H   H26       1.0  0.49092648487194973  0.11247139647135379  0.8299701571878013  1.0000
  H   H27       1.0  0.00907353191466292  0.6124714130959623  0.6700298535703878  1.0000
  H   H28       1.0  0.9909264682135778  0.6124714130959623  0.8299701464880349  1.0000
  H   H29       1.0  0.49092651337884735  0.8875280293743106  0.32997004930962437  1.0000
  H   H30       1.0  0.5090734866105773  0.8875280293743106  0.17002995065511525  1.0000
  H   H31       1.0  0.9909262557779559  0.3875290499039576  0.32996991740458553  1.0000
  H   H32       1.0  0.009073744211468823  0.3875290499039576  0.17003008256015414  1.0000
  H   H33       1.0  0.4564120385469382  0.8019996045085596  0.7063901496985896  1.0000
  H   H34       1.0  0.5435879615813025  0.8019996045085596  0.7936098503598331  1.0000
  H   H35       1.0  0.9564120988495258  0.3019993662408719  0.7063903610057277  1.0000
  H   H36       1.0  0.04358790095464709  0.3019993662408719  0.7936096390559273  1.0000
  H   H37       1.0  0.5435877961701947  0.1980002443200803  0.293609812854355  1.0000
  H   H38       1.0  0.45641220381922987  0.1980002443200803  0.20639018711038465  1.0000
  H   H39       1.0  0.043587795127771556  0.698000189883549  0.29360955835664243  1.0000
  H   H40       1.0  0.9564122048616531  0.698000189883549  0.20639044160809716  1.0000
  H   H41       1.0  0.37870117254676855  0.9874036002443268  0.48710488643932787  1.0000
  H   H42       1.0  0.6212988274426561  0.9874036002443268  0.012895113525411804  1.0000
  H   H43       1.0  0.8787014151097422  0.4874043043827083  0.48710517414410726  1.0000
  H   H44       1.0  0.12129858487968251  0.4874043043827083  0.012894825820632417  1.0000
  H   H45       1.0  0.6212984530562289  0.012596774775134198  0.5128951906341015  1.0000
  H   H46       1.0  0.37870154707201187  0.012596774775134198  0.9871048094243212  1.0000
  H   H47       1.0  0.12129852579666568  0.5125966255904164  0.5128951979810957  1.0000
  H   H48       1.0  0.878701474331575  0.5125966255904164  0.987104802077327  1.0000
  H   H49       1.0  0.4266072292631409  0.3031559302822085  0.4419904307491411  1.0000
  H   H50       1.0  0.5733927707262838  0.3031559302822085  0.05800956921559853  1.0000
  H   H51       1.0  0.9266072305251883  0.8031562819093335  0.44199025715445756  1.0000
  H   H52       1.0  0.07339276946423628  0.8031562819093335  0.0580097428102821  1.0000
  H   H53       1.0  0.5733928293598405  0.6968432485413983  0.558009730696149  1.0000
  H   H54       1.0  0.4266071704443324  0.6968432485413983  0.9419902693655059  1.0000
  H   H55       1.0  0.0733924440176916  0.1968438477800019  0.5580093745801761  1.0000
  H   H56       1.0  0.9266075561105491  0.1968438477800019  0.9419906254782466  1.0000
  H   H57       1.0  0.5311523059489303  0.42606433692128126  0.5773078510778406  1.0000
  H   H58       1.0  0.4688476938552427  0.42606433692128126  0.9226921489838144  1.0000
  H   H59       1.0  0.031152406444145207  0.9260649694091018  0.5773080236575993  1.0000
  H   H60       1.0  0.9688475933600278  0.9260649694091018  0.9226919764040558  1.0000
  H   H61       1.0  0.4688482107829205  0.5739321991046958  0.4226906472106174  1.0000
  H   H62       1.0  0.5311517892065041  0.5739321991046958  0.07730935275412233  1.0000
  H   H63       1.0  0.9688481980122909  0.07393272728215954  0.4226910806243923  1.0000
  H   H64       1.0  0.031151801977133672  0.07393272728215954  0.07730891934034737  1.0000
  C   C1        1.0  0.3257860833787964  0.3950839522099283  0.5743757435355985  1.0000
  C   C2        1.0  0.6742139167494443  0.3950839522099283  0.9256242565228242  1.0000
  C   C3        1.0  0.825786129507342  0.8950834544872388  0.5743755967291727  1.0000
  C   C4        1.0  0.17421387029683102  0.8950834544872388  0.9256244033324821  1.0000
  C   C5        1.0  0.6742137653784052  0.6049183330006493  0.4256243508659711  1.0000
  C   C6        1.0  0.32578623461101947  0.6049183330006493  0.07437564909876852  1.0000
  C   C7        1.0  0.17421385928710897  0.10491962931519615  0.42562439152276327  1.0000
  C   C8        1.0  0.8257861407023156  0.10491962931519615  0.07437560844197645  1.0000
  C   C9        1.0  0.35622558914437086  0.45652045792177753  0.6400293358629484  1.0000
  C   C10       1.0  0.6437744106598021  0.45652045792177753  0.8599706641987065  1.0000
  C   C11       1.0  0.8562255132746492  0.9565200329521598  0.6400294102544316  1.0000
  C   C12       1.0  0.14377448685359134  0.9565200329521598  0.8599705898039911  1.0000
  C   C13       1.0  0.643774441964033  0.5434809068778458  0.35997057444979924  1.0000
  C   C14       1.0  0.3562255580253917  0.5434809068778458  0.14002942551494044  1.0000
  C   C15       1.0  0.14377467783675568  0.04348181066419158  0.35997021562960585  1.0000
  C   C16       1.0  0.8562253221480813  0.04348181066419158  0.14002978503353233  1.0000
  C   C17       1.0  0.3601690911581168  0.31378729943515293  0.7165124035878054  1.0000
  C   C18       1.0  0.6398309089701238  0.31378729943515293  0.7834875964706173  1.0000
  C   C19       1.0  0.8601690164345684  0.8137870233555425  0.7165125994812266  1.0000
  C   C20       1.0  0.13983098336960442  0.8137870233555425  0.7834874005804283  1.0000
  C   C21       1.0  0.6398309008039671  0.6862138623326421  0.28348744775540735  1.0000
  C   C22       1.0  0.3601690991854575  0.6862138623326421  0.21651255220933235  1.0000
  C   C23       1.0  0.13983117773236364  0.1862149556153609  0.2834871038894849  1.0000
  C   C24       1.0  0.860168822257061  0.1862149556153609  0.21651289607525484  1.0000
  C   C25       1.0  0.33426934876892356  0.12410917070939789  0.7294730350119633  1.0000
  C   C26       1.0  0.6657306513593171  0.12410917070939789  0.7705269650464595  1.0000
  C   C27       1.0  0.8342693371772933  0.6241088269525115  0.7294732889373349  1.0000
  C   C28       1.0  0.16573066263146707  0.6241088269525115  0.7705267104259218  1.0000
  C   C29       1.0  0.6657305296088962  0.8758922989900032  0.27052684190648113  1.0000
  C   C30       1.0  0.3342694703805285  0.8758922989900032  0.22947315805825855  1.0000
  C   C31       1.0  0.1657309345201676  0.37589319093282575  0.2705262537373203  1.0000
  C   C32       1.0  0.8342690654692569  0.37589319093282575  0.22947374622741934  1.0000
  C   C33       1.0  0.3029322557146716  0.07722235047778182  0.6636356184299378  1.0000
  C   C34       1.0  0.6970677440895013  0.07722235047778182  0.8363643816317171  1.0000
  C   C35       1.0  0.8029322860319988  0.5772217613907696  0.6636357574074675  1.0000
  C   C36       1.0  0.19706771377217408  0.5772217613907696  0.8363642426541874  1.0000
  C   C37       1.0  0.6970675585219697  0.9227795591239136  0.33636435410421645  1.0000
  C   C38       1.0  0.3029324417915226  0.9227795591239136  0.16363564585729096  1.0000
  C   C39       1.0  0.19706809105628267  0.4227793411594089  0.3363637737407313  1.0000
  C   C40       1.0  0.8029319089331419  0.4227793411594089  0.16363622622400836  1.0000
  C   C41       1.0  0.29728987433991033  0.20970771938472876  0.5826046025238706  1.0000
  C   C42       1.0  0.7027101254642626  0.20970771938472876  0.9173953975377844  1.0000
  C   C43       1.0  0.7972900105651594  0.7097066903954222  0.5826045525882002  1.0000
  C   C44       1.0  0.20270998956308117  0.7097066903954222  0.9173954474702225  1.0000
  C   C45       1.0  0.70270989673573  0.7902948145398384  0.4173955275701284  1.0000
  C   C46       1.0  0.2972901032536946  0.7902948145398384  0.08260447239461124  1.0000
  C   C47       1.0  0.2027100409919799  0.29029553052174306  0.41739520458135076  1.0000
  C   C48       1.0  0.7972899589974447  0.29029553052174306  0.0826047953833889  1.0000
  C   C49       1.0  0.26422040947167247  0.16908153784803073  0.511866657879639  1.0000
  C   C50       1.0  0.7357795906565682  0.16908153784803073  0.9881333421787837  1.0000
  C   C51       1.0  0.7642205199258331  0.6690798354698275  0.5118666340400589  1.0000
  C   C52       1.0  0.23577947987834  0.6690798354698275  0.988133366021596  1.0000
  C   C53       1.0  0.7357794101302579  0.8309212887807553  0.48813338583297744  1.0000
  C   C54       1.0  0.2642205898591667  0.8309212887807553  0.011866614131762177  1.0000
  C   C55       1.0  0.2357793928857404  0.33092303514918786  0.4881332299645952  1.0000
  C   C56       1.0  0.7642206070990967  0.33092303514918786  0.011866770698542988  1.0000
  C   C57       1.0  0.4799647801744948  0.09203922076806641  0.6289292230275119  1.0000
  C   C58       1.0  0.5200352196296781  0.09203922076806641  0.8710707770341432  1.0000
  C   C59       1.0  0.9799649086188226  0.5920395351726896  0.6289292723355319  1.0000
  C   C60       1.0  0.020035091185350306  0.5920395351726896  0.8710707277261232  1.0000
  C   C61       1.0  0.5200352134381714  0.9079584776151268  0.3710701303737624  1.0000
  C   C62       1.0  0.47996478655125335  0.9079584776151268  0.12892986959097724  1.0000
  C   C63       1.0  0.02003515858932756  0.4079601495385558  0.3710700754432337  1.0000
  C   C64       1.0  0.9799648414000971  0.4079601495385558  0.12892992452150595  1.0000
  C   C65       1.0  0.4508959604516759  0.9181598067447958  0.6486711917600708  1.0000
  C   C66       1.0  0.5491040396765646  0.9181598067447958  0.8513288082983518  1.0000
  C   C67       1.0  0.9508960925095635  0.4181600608292915  0.6486712829332113  1.0000
  C   C68       1.0  0.04910390761867714  0.4181600608292915  0.8513287171252113  1.0000
  C   C69       1.0  0.5491039589428912  0.08183941099324475  0.35132836071362017  1.0000
  C   C70       1.0  0.45089604104653347  0.08183941099324475  0.14867163925111956  1.0000
  C   C71       1.0  0.04910393845898784  0.5818399368893555  0.3513283033452781  1.0000
  C   C72       1.0  0.9508960615304368  0.5818399368893555  0.14867169661946153  1.0000
  C   C73       1.0  0.4076340036458274  0.021138594494565788  0.5272395652796482  1.0000
  C   C74       1.0  0.5923659964824133  0.021138594494565788  0.9727604347787746  1.0000
  C   C75       1.0  0.9076344911665797  0.5211397159507059  0.5272401522295905  1.0000
  C   C76       1.0  0.09236550896166101  0.5211397159507059  0.9727598478288321  1.0000
  C   C77       1.0  0.5923655613946345  0.9788595201038751  0.47275991460791883  1.0000
  C   C78       1.0  0.40763443891885787  0.9788595201038751  0.02724008535358863  1.0000
  C   C79       1.0  0.09236598234493916  0.47886123940139735  0.47276028860880664  1.0000
  C   C80       1.0  0.9076340176398979  0.47886123940139735  0.02723971205433151  1.0000
  C   C81       1.0  0.4346156255937723  0.19977374256636946  0.5022805908781575  1.0000
  C   C82       1.0  0.5653843745390559  0.19977374256636946  0.9977194084818669  1.0000
  C   C83       1.0  0.9346156468017947  0.6997734681786909  0.5022808340010955  1.0000
  C   C84       1.0  0.06538435300237833  0.6997734681786909  0.9977191660605595  1.0000
  C   C85       1.0  0.5653845171388575  0.8002255902230404  0.49771880293695947  1.0000
  C   C86       1.0  0.4346154828505671  0.8002255902230404  0.002281197027780164  1.0000
  C   C87       1.0  0.06538437240455848  0.3002259813540201  0.4977191616293925  1.0000
  C   C88       1.0  0.934615627584866  0.3002259813540201  0.002280838335347117  1.0000
  C   C89       1.0  0.4720554726182578  0.2400618287351022  0.5542360620705085  1.0000
  C   C90       1.0  0.5279445275145704  0.2400618287351022  0.9457639372895158  1.0000
  C   C91       1.0  0.9720556499017634  0.7400625085970159  0.5542362240245451  1.0000
  C   C92       1.0  0.027944349902409495  0.7400625085970159  0.9457637760371099  1.0000
  C   C93       1.0  0.5279445602203644  0.7599355870954636  0.4457632888444688  1.0000
  C   C94       1.0  0.47205543976906017  0.7599355870954636  0.05423671112027086  1.0000
  C   C95       1.0  0.027944379194134287  0.25993668037818224  0.44576340068202075  1.0000
  C   C96       1.0  0.9720556207952903  0.25993668037818224  0.05423659928271891  1.0000
  C   C97       1.0  0.5024883230196443  0.4216048341802595  0.5337486190846378  1.0000
  C   C98       1.0  0.4975116771085964  0.4216048341802595  0.9662513809737848  1.0000
  C   C99       1.0  0.002488427859130285  0.9216056747757039  0.5337488209518804  1.0000
  C   C100      1.0  0.9975115719450427  0.9216056747757039  0.9662511791097745  1.0000
  C   C101      1.0  0.4975118784125347  0.5783922618751769  0.46625057022602245  1.0000
  C   C102      1.0  0.5024881215768899  0.5783922618751769  0.033749429738717196  1.0000
  C   C103      1.0  0.9975120862468603  0.07839398794042672  0.4662508170743753  1.0000
  C   C104      1.0  0.0024879137425642913  0.07839398794042672  0.033749182890364354  1.0000
  N   N1        1.0  0.3277691241091843  0.5253837427044424  0.4864110256916332  1.0000
  N   N2        1.0  0.6722308758802402  0.5253837427044424  0.01358897427310642  1.0000
  N   N3        1.0  0.8277694446940465  0.0253818937175849  0.486410239250123  1.0000
  N   N4        1.0  0.1722305552953782  0.0253818937175849  0.013589760714616692  1.0000
  N   N5        1.0  0.6722306572628655  0.47461903485831836  0.5135892635240852  1.0000
  N   N6        1.0  0.3277693428653752  0.47461903485831836  0.9864107365343374  1.0000
  N   N7        1.0  0.17223068618405626  0.974620643590846  0.5135891833156915  1.0000
  N   N8        1.0  0.8277693139441844  0.974620643590846  0.9864108167427312  1.0000
  N   N9        1.0  0.3942193361904159  0.36011837587095746  0.7839780946851759  1.0000
  N   N10       1.0  0.605780663613757  0.36011837587095746  0.716021905376479  1.0000
  N   N11       1.0  0.8942192875040339  0.8601183417376088  0.7839782239753963  1.0000
  N   N12       1.0  0.10578071262420669  0.8601183417376088  0.7160217760830264  1.0000
  N   N13       1.0  0.6057806858824403  0.6398821226595324  0.21602176054782884  1.0000
  N   N14       1.0  0.39421931410698435  0.6398821226595324  0.28397823941691086  1.0000
  N   N15       1.0  0.10578088200680456  0.13988249348732928  0.21602187840062653  1.0000
  N   N16       1.0  0.8942191179826201  0.13988249348732928  0.2839781215641131  1.0000
  N   N17       1.0  0.27519568778776743  0.8798079742115941  0.6832091462918027  1.0000
  N   N18       1.0  0.7248043123404732  0.8798079742115941  0.81679085376662  1.0000
  N   N19       1.0  0.775195707861731  0.3798073620269563  0.6832093154006655  1.0000
  N   N20       1.0  0.22480429226650964  0.3798073620269563  0.8167906846577572  1.0000
  N   N21       1.0  0.7248042318629888  0.12019326369313664  0.31679066317312693  1.0000
  N   N22       1.0  0.27519576812643576  0.12019326369313664  0.1832093367916127  1.0000
  N   N23       1.0  0.22480526036592344  0.6201912466155998  0.31679079576943764  1.0000
  N   N24       1.0  0.775194739623501  0.6201912466155998  0.18320920419530207  1.0000
  N   N25       1.0  0.41490096171128527  0.8811538857358646  0.5993955124997534  1.0000
  N   N26       1.0  0.5850990384169553  0.8811538857358646  0.9006044875586693  1.0000
  N   N27       1.0  0.9149010628284117  0.38115465585959013  0.5993955781424465  1.0000
  N   N28       1.0  0.08509893729982909  0.38115465585959013  0.9006044219159763  1.0000
  N   N29       1.0  0.5850989930406448  0.11884521187501101  0.4006045277698218  1.0000
  N   N30       1.0  0.4149010069487798  0.11884521187501101  0.09939547219491787  1.0000
  N   N31       1.0  0.08509899729269274  0.6188456633261181  0.4006045525603826  1.0000
  N   N32       1.0  0.9149010026967319  0.6188456633261181  0.09939544740435703  1.0000
  O   O1        1.0  0.3343649930244801  0.41767555751811447  0.41360549942885677  1.0000
  O   O2        1.0  0.6656350069649446  0.41767555751811447  0.08639450053588292  1.0000
  O   O3        1.0  0.8343649193738396  0.9176705101905426  0.4136051373277689  1.0000
  O   O4        1.0  0.16563508061558502  0.9176705101905426  0.08639486263697083  1.0000
  O   O5        1.0  0.6656350762635626  0.5823283637906116  0.5863947156832183  1.0000
  O   O6        1.0  0.33436492354061037  0.5823283637906116  0.9136052843784367  1.0000
  O   O7        1.0  0.16563516901527  0.08232989359176089  0.5863946858179274  1.0000
  O   O8        1.0  0.8343648311129707  0.08232989359176089  0.9136053142404953  1.0000
  O   O9        1.0  0.32483426453071573  0.7336108744774922  0.49248254185812634  1.0000
  O   O10       1.0  0.675165735458709  0.7336108744774922  0.007517458106613342  1.0000
  O   O11       1.0  0.8248352498855369  0.23360959905554915  0.49248044985019124  1.0000
  O   O12       1.0  0.17516475010388777  0.23360959905554915  0.007519550114548428  1.0000
  O   O13       1.0  0.6751651032856324  0.2663918421757202  0.5075181530351909  1.0000
  O   O14       1.0  0.3248348968426083  0.2663918421757202  0.9924818470232318  1.0000
  O   O15       1.0  0.1751651001165924  0.7663935101258643  0.5075180249605281  1.0000
  O   O16       1.0  0.8248349000116483  0.7663935101258643  0.9924819750978946  1.0000
  O   O17       1.0  0.4037071145805443  0.2067620862478157  0.8389349535649078  1.0000
  O   O18       1.0  0.5962928855476963  0.2067620862478157  0.6610650464935149  1.0000
  O   O19       1.0  0.9037071242034134  0.706762192544815  0.8389350857653164  1.0000
  O   O20       1.0  0.09629287560075962  0.706762192544815  0.6610649142963385  1.0000
  O   O21       1.0  0.5962928522205947  0.7932380840478852  0.16106483098740046  1.0000
  O   O22       1.0  0.40370714776882993  0.7932380840478852  0.3389351689773392  1.0000
  O   O23       1.0  0.09629281460332506  0.29323794560417993  0.16106501402327533  1.0000
  O   O24       1.0  0.9037071853860996  0.29323794560417993  0.3389349859414643  1.0000
  O   O25       1.0  0.4117174570017731  0.5488233781201788  0.7812979442556981  1.0000
  O   O26       1.0  0.5882825431264677  0.5488233781201788  0.7187020558027245  1.0000
  O   O27       1.0  0.9117174125390946  0.048823419021254935  0.7812980225240443  1.0000
  O   O28       1.0  0.08828258726507836  0.048823419021254935  0.7187019775376107  1.0000
  O   O29       1.0  0.588282607548183  0.4511769579848485  0.21870200552960822  1.0000
  O   O30       1.0  0.4117173924412417  0.4511769579848485  0.2812979944351315  1.0000
  O   O31       1.0  0.08828283853058108  0.9511771133478729  0.21870239120216972  1.0000
  O   O32       1.0  0.9117171614588435  0.9511771133478729  0.28129760876257  1.0000
  O   O33       1.0  0.2815738914074295  0.7731658347098851  0.7562896666235521  1.0000
  O   O34       1.0  0.7184261083967434  0.7731658347098851  0.7437103334381029  1.0000
  O   O35       1.0  0.7815738668852036  0.27316532742502525  0.7562899157894243  1.0000
  O   O36       1.0  0.21842613324303703  0.27316532742502525  0.7437100842689984  1.0000
  O   O37       1.0  0.7184261310940734  0.2268349362216408  0.24370992602456182  1.0000
  O   O38       1.0  0.2815738688953513  0.2268349362216408  0.25629007394017783  1.0000
  O   O39       1.0  0.21842786407519346  0.7268307145568366  0.24370907180558285  1.0000
  O   O40       1.0  0.7815721359142311  0.7268307145568366  0.25629092815915683  1.0000
  O   O41       1.0  0.2474027111676293  0.8276457949084404  0.6257147415909213  1.0000
  O   O42       1.0  0.7525972889606113  0.8276457949084404  0.8742852584675014  1.0000
  O   O43       1.0  0.7474027751162463  0.32764489340344755  0.6257148418236146  1.0000
  O   O44       1.0  0.2525972246879266  0.32764489340344755  0.8742851582380404  1.0000
  O   O45       1.0  0.7525972227208167  0.17235553605254486  0.37428502164072364  1.0000
  O   O46       1.0  0.2474027772686079  0.17235553605254486  0.12571497832401599  1.0000
  O   O47       1.0  0.2525979452522954  0.6723545070632384  0.37428560912298453  1.0000
  O   O48       1.0  0.7474020547371293  0.6723545070632384  0.12571439084175517  1.0000
