data_image0
_chemical_formula_structural       H112C48P8I32
_chemical_formula_sum              "H112 C48 P8 I32"
_cell_length_a       11.886303478453993
_cell_length_b       10.097217091584588
_cell_length_c       25.08987934507693
_cell_angle_alpha    90.0
_cell_angle_beta     99.02606616658733
_cell_angle_gamma    90.0

_space_group_name_H-M_alt    "P 1"
_space_group_IT_number       1

loop_
  _space_group_symop_operation_xyz
  'x, y, z'

loop_
  _atom_site_type_symbol
  _atom_site_label
  _atom_site_symmetry_multiplicity
  _atom_site_fract_x
  _atom_site_fract_y
  _atom_site_fract_z
  _atom_site_occupancy
  H   H1        1.0  0.35204392976963994  0.8243433417844597  0.16752376205991942  1.0000
  H   H2        1.0  0.14795607012657921  0.324343342358112  0.3324762376419476  1.0000
  H   H3        1.0  0.6479560701525771  0.1756566580586074  0.832476237747375  1.0000
  H   H4        1.0  0.8520439297956377  0.6756566584753269  0.6675237621653467  1.0000
  H   H5        1.0  0.3612765746380362  0.6031163670904405  0.21085943372196136  1.0000
  H   H6        1.0  0.13872342525818307  0.103116367664093  0.2891405659799058  1.0000
  H   H7        1.0  0.6387234252841809  0.39688363275262645  0.789140566085333  1.0000
  H   H8        1.0  0.861276574664034  0.896883632178974  0.7108594338273885  1.0000
  H   H9        1.0  0.2653878681801016  0.7042780684518303  0.24027230193757548  1.0000
  H   H10       1.0  0.23461213184589616  0.2042780680351108  0.25972769816785174  1.0000
  H   H11       1.0  0.7346121317421154  0.2957219323816086  0.7597276978697187  1.0000
  H   H12       1.0  0.7653878682060996  0.7957219318079563  0.7402723020430028  1.0000
  H   H13       1.0  0.40465599699979204  0.6733103397040145  0.2758647391895757  1.0000
  H   H14       1.0  0.09534400289642714  0.173310340277667  0.22413526051229135  1.0000
  H   H15       1.0  0.595344002922425  0.32668966013905243  0.7241352606177186  1.0000
  H   H16       1.0  0.9046559970257898  0.8266896595654  0.775864739295003  1.0000
  H   H17       1.0  0.3971226271415716  0.03290839515344656  0.22109246197033053  1.0000
  H   H18       1.0  0.10287737288442624  0.5329083945797941  0.27890753813509667  1.0000
  H   H19       1.0  0.6028773729104241  0.9670916046896203  0.778907538240524  1.0000
  H   H20       1.0  0.8971226271675694  0.46709160526327287  0.721092462075758  1.0000
  H   H21       1.0  0.41308675635042263  0.9407213060632873  0.2822452621088321  1.0000
  H   H22       1.0  0.08691324354579656  0.4407213066369398  0.217754737593035  1.0000
  H   H23       1.0  0.5869132435717944  0.059278693779779644  0.7177547376984622  1.0000
  H   H24       1.0  0.9130867563764204  0.5592786941964991  0.7822452622142593  1.0000
  H   H25       1.0  0.27769105744680495  0.9493530012333  0.24027550950894244  1.0000
  H   H26       1.0  0.22230894257919293  0.44935300081658053  0.2597244905964848  1.0000
  H   H27       1.0  0.7223089426051909  0.050646998609766986  0.7597244907019121  1.0000
  H   H28       1.0  0.7776910574728028  0.5506469990264864  0.7402755096143696  1.0000
  H   H29       1.0  0.5493370388794215  0.5736110432672754  0.19485735229456558  1.0000
  H   H30       1.0  0.9506629604892376  0.07361104384092794  0.30514264800510416  1.0000
  H   H31       1.0  0.45066296117257404  0.4263889565757915  0.8051426479162889  1.0000
  H   H32       1.0  0.049337039562757964  0.9263889569925109  0.6948573522057503  1.0000
  H   H33       1.0  0.4064102562255699  0.6503670912922243  0.11631361119094441  1.0000
  H   H34       1.0  0.09358974380042791  0.1503670918658767  0.3836863889144828  1.0000
  H   H35       1.0  0.5935897438264256  0.3496329085508427  0.8836863890199099  1.0000
  H   H36       1.0  0.9064102562515677  0.8496329079771903  0.6163136112963716  1.0000
  H   H37       1.0  0.5149016200498241  0.5554049803162063  0.09319073226823858  1.0000
  H   H38       1.0  0.9850983800309656  0.05540497989948694  0.40680926762972347  1.0000
  H   H39       1.0  0.48509837987239296  0.4445950205172325  0.9068092675390558  1.0000
  H   H40       1.0  0.01490161989125135  0.9445950199435801  0.5931907321775708  1.0000
  H   H41       1.0  0.5156709501908135  0.7309136193725041  0.08778685877931663  1.0000
  H   H42       1.0  0.984329049889976  0.2309136189557847  0.41221314111864543  1.0000
  H   H43       1.0  0.4843290497314035  0.2690863804705628  0.9122131410279777  1.0000
  H   H44       1.0  0.015670950162019488  0.7690863808872822  0.5877868590922091  1.0000
  H   H45       1.0  0.713410182830651  0.5435792456690314  0.14554100132433956  1.0000
  H   H46       1.0  0.7865898172501388  0.04357924624268377  0.35445899857362256  1.0000
  H   H47       1.0  0.28658981709156595  0.4564207541740356  0.8544589984829547  1.0000
  H   H48       1.0  0.213410182801857  0.9564207545907552  0.6455410016372319  1.0000
  H   H49       1.0  0.7541239518516827  0.6413691367889264  0.20440692176472477  1.0000
  H   H50       1.0  0.745876048229107  0.1413691363722069  0.2955930781332373  1.0000
  H   H51       1.0  0.24587604807053434  0.3586308630541406  0.7955930780425695  1.0000
  H   H52       1.0  0.25412395169311  0.8586308634708599  0.704406921674057  1.0000
  H   H53       1.0  0.7285679294467333  0.7181432412742192  0.1398414224166089  1.0000
  H   H54       1.0  0.7714320706340565  0.21814324184787168  0.3601585774813532  1.0000
  H   H55       1.0  0.27143207047548373  0.28185675856884773  0.8601585773906855  1.0000
  H   H56       1.0  0.22856792941793921  0.7818567589855672  0.6398414227295013  1.0000
  H   H57       1.0  0.033702853633762325  0.300573402797237  0.01227693724758743  1.0000
  H   H58       1.0  0.46629714639223546  0.8005734032139564  0.48772306285783984  1.0000
  H   H59       1.0  0.9662971464182333  0.69942659704583  0.987723062963267  1.0000
  H   H60       1.0  0.5337028536597601  0.19942659761948245  0.5122769373530146  1.0000
  H   H61       1.0  0.0781616545174537  0.5169157296172288  0.06091638965595322  1.0000
  H   H62       1.0  0.42183834550854415  0.0169157292005094  0.439083610449474  1.0000
  H   H63       1.0  0.9218383454047633  0.48308427121621006  0.9390836101513411  1.0000
  H   H64       1.0  0.5781616545434516  0.9830842706425575  0.5609163897613805  1.0000
  H   H65       1.0  0.09932780959100095  0.43243842837044155  0.12382593184679434  1.0000
  H   H66       1.0  0.40067219043499686  0.9324384277967892  0.37617406825863287  1.0000
  H   H67       1.0  0.9006721904609947  0.5675615724629973  0.8761740683640601  1.0000
  H   H68       1.0  0.5993278096169988  0.06756157204627783  0.6238259319522216  1.0000
  H   H69       1.0  0.9621302703028549  0.43370093069007826  0.08358649709637654  1.0000
  H   H70       1.0  0.5378697289360258  0.9337009311067975  0.4164135027997331  1.0000
  H   H71       1.0  0.037869729619362136  0.5662990691529887  0.9164135027109178  1.0000
  H   H72       1.0  0.4621302711159699  0.06629906873626933  0.5835864974111215  1.0000
  H   H73       1.0  0.09601544981323036  0.16528712266580456  0.12338751755635843  1.0000
  H   H74       1.0  0.40398455008298884  0.665287123082524  0.3766124821455087  1.0000
  H   H75       1.0  0.9039845501089866  0.8347128771772624  0.8766124822509359  1.0000
  H   H76       1.0  0.5960154498392282  0.33471287676054295  0.6233875176617857  1.0000
  H   H77       1.0  0.05209169074844955  0.08547146329252223  0.0603763306836003  1.0000
  H   H78       1.0  0.44790830927754827  0.5854714637092416  0.439623669421827  1.0000
  H   H79       1.0  0.947908309303546  0.9145285365505447  0.9396236695272542  1.0000
  H   H80       1.0  0.5520916907744474  0.41452853613382534  0.5603763307890276  1.0000
  H   H81       1.0  0.9549933519671655  0.18774953462969415  0.08859825182341871  1.0000
  H   H82       1.0  0.5450066481136241  0.6877495350464136  0.4114017480745434  1.0000
  H   H83       1.0  0.045006647955051444  0.8122504652133727  0.9114017479838755  1.0000
  H   H84       1.0  0.4549933518085928  0.31225046578702526  0.5885982517327509  1.0000
  H   H85       1.0  0.2361057490548814  0.057502741075450316  0.04446726855070941  1.0000
  H   H86       1.0  0.2638942509711164  0.5575027414921697  0.45553273155471785  1.0000
  H   H87       1.0  0.7638942509971143  0.9424972587676166  0.955532731660145  1.0000
  H   H88       1.0  0.7361057490808792  0.44249725934126916  0.5444672686561367  1.0000
  H   H89       1.0  0.08669849577997606  0.12411429789347335  0.9661984123921726  1.0000
  H   H90       1.0  0.41330150411344685  0.6241142983101927  0.533801587728014  1.0000
  H   H91       1.0  0.9133015042720196  0.8758857019495936  0.03380158781868183  1.0000
  H   H92       1.0  0.5866984959385487  0.3758857015328742  0.4661984124828404  1.0000
  H   H93       1.0  0.1892288860278494  0.014174462993301783  0.9463236907033118  1.0000
  H   H94       1.0  0.3107711138655735  0.5141744634100212  0.5536763094168748  1.0000
  H   H95       1.0  0.8107711140241461  0.9858255368497651  0.053676309507542694  1.0000
  H   H96       1.0  0.6892288861864222  0.48582553643304577  0.44632369079397954  1.0000
  H   H97       1.0  0.1951339390425033  0.18594940100523746  0.9314895986739549  1.0000
  H   H98       1.0  0.3048660608509196  0.6859494014219569  0.5685104014462318  1.0000
  H   H99       1.0  0.8048660610094922  0.8140505988378295  0.06851040153689957  1.0000
  H   H100      1.0  0.695133939201076  0.31405059842111005  0.4314895987646227  1.0000
  H   H101      1.0  0.4393485657448661  0.12048518507281897  0.04780781814153787  1.0000
  H   H102      1.0  0.06065143428113169  0.6204851844991665  0.45219218196388933  1.0000
  H   H103      1.0  0.5606514343071295  0.879514814770248  0.9521921820693166  1.0000
  H   H104      1.0  0.9393485656410852  0.3795148153439004  0.5478078178434049  1.0000
  H   H105      1.0  0.4088113264687405  0.1916115145838045  0.982305383482023  1.0000
  H   H106      1.0  0.09118867329490382  0.691611514010152  0.5176946162346037  1.0000
  H   H107      1.0  0.5911886734534764  0.8083884862496343  0.01769461632527138  1.0000
  H   H108      1.0  0.9088113266273132  0.3083884858329149  0.4823053835726907  1.0000
  H   H109      1.0  0.39279968987155134  0.018047666832069854  0.9906551788905852  1.0000
  H   H110      1.0  0.10720030989209295  0.5180476662584174  0.5093448208260415  1.0000
  H   H111      1.0  0.6072003100506657  0.981952334001369  0.00934482091670929  1.0000
  H   H112      1.0  0.892799690030124  0.4819523335846495  0.4906551789812528  1.0000
  C   C1        1.0  0.39416412370362575  0.8174335299653052  0.20995213949401698  1.0000
  C   C2        1.0  0.1058358763223721  0.3174335305389575  0.29004786061141025  1.0000
  C   C3        1.0  0.6058358763483699  0.1825664698777619  0.7900478607168375  1.0000
  C   C4        1.0  0.8941641235998449  0.6825664693041095  0.7099521391958841  1.0000
  C   C5        1.0  0.3551433738818872  0.6913966112324541  0.23572478221629117  1.0000
  C   C6        1.0  0.14485662614411057  0.1913966118061066  0.26427521788913605  1.0000
  C   C7        1.0  0.6448566261701084  0.3086033886106128  0.7642752179945633  1.0000
  C   C8        1.0  0.8551433737781065  0.8086033880369604  0.7357247819181583  1.0000
  C   C9        1.0  0.369922183504804  0.9429952791582242  0.2401714637078104  1.0000
  C   C10       1.0  0.1300778163914152  0.4429952787415048  0.2598285359940567  1.0000
  C   C11       1.0  0.630077816417413  0.05700472167521468  0.759828536099484  1.0000
  C   C12       1.0  0.8699221835308019  0.5570047211015622  0.7401714638132375  1.0000
  C   C13       1.0  0.5737314615693299  0.6528873688864546  0.16844204904266452  1.0000
  C   C14       1.0  0.9262685385114598  0.152887369460107  0.3315579508552975  1.0000
  C   C15       1.0  0.4262685383528872  0.34711263095661243  0.8315579507646298  1.0000
  C   C16       1.0  0.07373146141075713  0.84711263038296  0.6684420489519968  1.0000
  C   C17       1.0  0.49751515659565754  0.6479337584464366  0.11346838065608635  1.0000
  C   C18       1.0  0.0024848433005616893  0.14793375802971728  0.38653161904578076  1.0000
  C   C19       1.0  0.5024848433265595  0.35206624139663023  0.8865316191512079  1.0000
  C   C20       1.0  0.9975151566216554  0.8520662418133496  0.6134683807615136  1.0000
  C   C21       1.0  0.7001017318441811  0.6389881213287322  0.1646805070181849  1.0000
  C   C22       1.0  0.7998982673946997  0.1389881219023846  0.33531949287792473  1.0000
  C   C23       1.0  0.29989826820781457  0.3610118785143348  0.8353194931926696  1.0000
  C   C24       1.0  0.20010173252751745  0.8610118779406822  0.6646805069293698  1.0000
  C   C25       1.0  0.07900291912054604  0.3001047449524984  0.05427979509341985  1.0000
  C   C26       1.0  0.4209970807756731  0.8001047443788458  0.44572020460844725  1.0000
  C   C27       1.0  0.9209970808016711  0.6998952548905686  0.9457202047138745  1.0000
  C   C28       1.0  0.5790029191465438  0.19989525546422104  0.5542797951988471  1.0000
  C   C29       1.0  0.05395120875339601  0.4287901597766424  0.08217270879093462  1.0000
  C   C30       1.0  0.4460487911428232  0.92879015920299  0.41782729091093246  1.0000
  C   C31       1.0  0.946048791168821  0.5712098410567964  0.9178272910163596  1.0000
  C   C32       1.0  0.5539512087793939  0.07120984064007697  0.5821727088963619  1.0000
  C   C33       1.0  0.044568858001884655  0.17672472363570468  0.0832518441075511  1.0000
  C   C34       1.0  0.4554311420241131  0.6767247240524241  0.4167481559978761  1.0000
  C   C35       1.0  0.9554311419203324  0.8232752762073623  0.9167481556997432  1.0000
  C   C36       1.0  0.5445688580278825  0.32327527678101475  0.5832518442129784  1.0000
  C   C37       1.0  0.2574205023029805  0.13144550403954058  0.015080187593264448  1.0000
  C   C38       1.0  0.24257949772301732  0.6314455034658881  0.4849198125121628  1.0000
  C   C39       1.0  0.742579497749015  0.8685544967938983  0.98491981261759  1.0000
  C   C40       1.0  0.7574205023289783  0.3685544963771788  0.5150801876986917  1.0000
  C   C41       1.0  0.17666652798690918  0.11409001109425632  0.9617961016002853  1.0000
  C   C42       1.0  0.32333347177673516  0.6140900105206039  0.5382038981163414  1.0000
  C   C43       1.0  0.8233334719353078  0.8859099887488106  0.038203898207009146  1.0000
  C   C44       1.0  0.6766665281454819  0.3859099893224631  0.4617961016909529  1.0000
  C   C45       1.0  0.38230554887023127  0.11524897696513504  0.008976134952817677  1.0000
  C   C46       1.0  0.11769445115576654  0.6152489773818545  0.49102386515260954  1.0000
  C   C47       1.0  0.6176944510519857  0.8847510228779318  0.9910238648544767  1.0000
  C   C48       1.0  0.8823055488962291  0.3847510224612125  0.5089761350582449  1.0000
  P   P1        1.0  0.5466806981009136  0.8043826666626007  0.20500705101331126  1.0000
  P   P2        1.0  0.953319301979876  0.30438266723625323  0.29499294888465083  1.0000
  P   P3        1.0  0.45331930195108205  0.1956173331804662  0.7949929491975433  1.0000
  P   P4        1.0  0.04668069794234091  0.6956173326068137  0.7050070509226435  1.0000
  P   P5        1.0  0.23025883008725676  0.2892211451444295  0.046658750122614626  1.0000
  P   P6        1.0  0.26974116993874103  0.7892211455611489  0.4533412499828126  1.0000
  P   P7        1.0  0.7697411699647387  0.7107788546986374  0.9533412500882398  1.0000
  P   P8        1.0  0.7302588301132545  0.21077885527228996  0.5466587502280419  1.0000
  I   I1        1.0  0.6549080266640944  0.7914235603253649  0.29675030404155117  1.0000
  I   I2        1.0  0.8450919734166952  0.29142355990864544  0.20324969585641092  1.0000
  I   I3        1.0  0.3450919733879012  0.20857643951770202  0.7032496961693033  1.0000
  I   I4        1.0  0.15490802650552177  0.7085764399344214  0.7967503039508834  1.0000
  I   I5        1.0  0.6045369539247452  0.9936373031299751  0.15485979595469992  1.0000
  I   I6        1.0  0.8954630461560444  0.4936373037036276  0.34514020394326217  1.0000
  I   I7        1.0  0.39546304599747173  0.006362696713091839  0.8451402038525944  1.0000
  I   I8        1.0  0.10453695389595115  0.5063626961394394  0.6548597962675923  1.0000
  I   I9        1.0  0.3484828126542182  0.30262213561266205  0.13644796877973026  1.0000
  I   I10       1.0  0.1515171873717797  0.8026221350390097  0.3635520313256971  1.0000
  I   I11       1.0  0.6515171873977775  0.6973778652207768  0.8635520314311244  1.0000
  I   I12       1.0  0.8484828125504373  0.19737786480405736  0.6364479684815973  1.0000
  I   I13       1.0  0.2762526231045401  0.47027586580836866  0.9891928550268809  1.0000
  I   I14       1.0  0.22374737763079192  0.9702758662250881  0.5108071450951582  1.0000
  I   I15       1.0  0.7237473769474555  0.5297241340346983  0.010807145183973561  1.0000
  I   I16       1.0  0.776252622291425  0.029724133617978845  0.4891928547121361  1.0000
  I   I17       1.0  0.6889740469030529  0.25656530076580236  0.08395266904638463  1.0000
  I   I18       1.0  0.811025953177737  0.7565653001921498  0.4160473308515775  1.0000
  I   I19       1.0  0.3110259531489429  0.7434346990772646  0.9160473311644699  1.0000
  I   I20       1.0  0.1889740467444801  0.24343469965091705  0.5839526689557168  1.0000
  I   I21       1.0  0.07351234894175933  0.814803956909762  0.15356959148938537  1.0000
  I   I22       1.0  0.42648765108423853  0.31480395748341444  0.3464304086160419  1.0000
  I   I23       1.0  0.9264876511102363  0.18519604293330497  0.8464304087214692  1.0000
  I   I24       1.0  0.5735123488379785  0.6851960423596525  0.6535695911912526  1.0000
  I   I25       1.0  0.180135824850946  0.7971522427410584  0.05751289605519556  1.0000
  I   I26       1.0  0.3198641751750518  0.29715224232433896  0.44248710405023167  1.0000
  I   I27       1.0  0.8198641750712711  0.2028477580923805  0.9424871037520989  1.0000
  I   I28       1.0  0.6801358248769438  0.7028477575187281  0.5575128961606227  1.0000
  I   I29       1.0  0.9659691778017  0.8255849304208422  0.25198594991104706  1.0000
  I   I30       1.0  0.5340308222790897  0.32558493000412275  0.24801404998691506  1.0000
  I   I31       1.0  0.03403082225029572  0.17441506942222473  0.7480140502998075  1.0000
  I   I32       1.0  0.46596917764312723  0.6744150698389442  0.7519859498203793  1.0000
