data_image0
_chemical_formula_structural       H44C52N12O20
_chemical_formula_sum              "H44 C52 N12 O20"
_cell_length_a       7.706985954723345
_cell_length_b       3.853570090120166
_cell_length_c       42.390722573464885
_cell_angle_alpha    90.0
_cell_angle_beta     92.23249568032514
_cell_angle_gamma    90.0

_space_group_name_H-M_alt    "P 1"
_space_group_IT_number       1

loop_
  _space_group_symop_operation_xyz
  'x, y, z'

loop_
  _atom_site_type_symbol
  _atom_site_label
  _atom_site_symmetry_multiplicity
  _atom_site_fract_x
  _atom_site_fract_y
  _atom_site_fract_z
  _atom_site_occupancy
  H   H1        1.0  0.4633412322754627  0.22707563623754232  0.9825685285570014  1.0000
  H   H2        1.0  0.03665876865603739  0.7270756375194488  0.5174314714156572  1.0000
  H   H3        1.0  0.5366587684167133  0.7729243637312745  0.017431471440866306  1.0000
  H   H4        1.0  0.9633412320361385  0.272924362449368  0.48256852858221044  1.0000
  H   H5        1.0  0.22685096609471472  0.4584335093655742  0.9463563049280574  1.0000
  H   H6        1.0  0.27314903353827874  0.9584335106474808  0.5536436950359159  1.0000
  H   H7        1.0  0.7731490345974614  0.5415664906032427  0.05364369506981024  1.0000
  H   H8        1.0  0.7268509658553907  0.04156648932133608  0.44635630495326656  1.0000
  H   H9        1.0  0.5738907139636769  0.7125841818837584  0.8780297363103321  1.0000
  H   H10       1.0  0.9261092870745871  0.21258418319684813  0.6219702636864693  1.0000
  H   H11       1.0  0.42610928672849907  0.28741581808505845  0.12197026368753562  1.0000
  H   H12       1.0  0.07389071361758891  0.7874158167719687  0.37802973631139813  1.0000
  H   H13       1.0  0.8266351077270473  0.49386136634163424  0.9109912503325659  1.0000
  H   H14       1.0  0.67336489201271  0.9938613650285446  0.5890087496555502  1.0000
  H   H15       1.0  0.17336489166662208  0.5061386336271826  0.08900874965661638  1.0000
  H   H16       1.0  0.32663510867946594  0.006138634940272318  0.4109912503423174  1.0000
  H   H17       1.0  0.051575563015987314  0.9934991424745605  0.973029601263651  1.0000
  H   H18       1.0  0.44842443661700615  0.49349914378765014  0.5269703987003223  1.0000
  H   H19       1.0  0.9484244376761887  0.006500857494256401  0.02697039873421658  1.0000
  H   H20       1.0  0.5515755627766633  0.5065008561811667  0.4730296012888602  1.0000
  H   H21       1.0  0.9677934971865249  0.08931320618311825  0.9342631421398783  1.0000
  H   H22       1.0  0.5322065025532325  0.5893132048700286  0.565736857848238  1.0000
  H   H23       1.0  0.03220650220714457  0.9106867937856986  0.06573685784930426  1.0000
  H   H24       1.0  0.46779349813894344  0.4106867950987883  0.4342631421496296  1.0000
  H   H25       1.0  0.2720842751718453  0.697831347844031  0.888364182344146  1.0000
  H   H26       1.0  0.22791572446114816  0.1978313465621245  0.6116358176198272  1.0000
  H   H27       1.0  0.7279157242218242  0.3021686521247858  0.11163581764503634  1.0000
  H   H28       1.0  0.7720842762310278  0.8021686534066923  0.3883641823780404  1.0000
  H   H29       1.0  0.17958127339876231  0.3273442186075988  0.7617039242423519  1.0000
  H   H30       1.0  0.3204187262342311  0.8273442172945091  0.7382960757216215  1.0000
  H   H31       1.0  0.820418725994907  0.6726557813612181  0.23829607574683062  1.0000
  H   H32       1.0  0.6795812731594383  0.17265578267430776  0.26170392426756095  1.0000
  H   H33       1.0  0.8742189457177729  0.5145189742580164  0.7525775406331107  1.0000
  H   H34       1.0  0.6257810540219845  0.014518972976109878  0.7474224593550056  1.0000
  H   H35       1.0  0.12578105367589648  0.48548102571080043  0.24742245935607185  1.0000
  H   H36       1.0  0.3742189453716849  0.985481026992707  0.2525775406341768  1.0000
  H   H37       1.0  0.6674740302397585  0.4796857762466072  0.7968813110229457  1.0000
  H   H38       1.0  0.8325259694999989  0.9796857775285138  0.7031186889651704  1.0000
  H   H39       1.0  0.3325259704524176  0.5203142237222097  0.2031186889749218  1.0000
  H   H40       1.0  0.1674740298936704  0.02031422244030312  0.296881311024012  1.0000
  H   H41       1.0  0.7697042348865201  0.24100095970254945  0.8486941707872515  1.0000
  H   H42       1.0  0.7302957648560512  0.741000960984456  0.6513058294367848  1.0000
  H   H43       1.0  0.23029576450714942  0.7589990402662675  0.15130582920193097  1.0000
  H   H44       1.0  0.26970423454043196  0.2589990389843609  0.34869417078831766  1.0000
  C   C1        1.0  0.4938944712926894  0.33194483559013493  0.9596449569185563  1.0000
  C   C2        1.0  0.006105528343117898  0.8319448342770452  0.5403550432813369  1.0000
  C   C3        1.0  0.5061055294023005  0.668055164378682  0.04035504331523123  1.0000
  C   C4        1.0  0.9938944710505514  0.16805516569177167  0.4596449567078455  1.0000
  C   C5        1.0  0.36157468172252316  0.4584955842712865  0.9396176022714391  1.0000
  C   C6        1.0  0.13842531791328408  0.9584955829581968  0.5603823979284541  1.0000
  C   C7        1.0  0.6384253176711462  0.5415044156975303  0.0603823977177433  1.0000
  C   C8        1.0  0.8615746814803853  0.04150441701062003  0.43961760206072825  1.0000
  C   C9        1.0  0.5573984226594592  0.6015975720653646  0.9014233558597483  1.0000
  C   C10       1.0  0.9426015770802985  0.10159757337845422  0.5985766441283681  1.0000
  C   C11       1.0  0.44260157673421036  0.39840242790345237  0.09857664412943425  1.0000
  C   C12       1.0  0.05739842361187768  0.8984024265903627  0.40142335586949957  1.0000
  C   C13       1.0  0.6966962217966313  0.4795845791771677  0.9199648682625162  1.0000
  C   C14       1.0  0.8033037779431261  0.9795845778640779  0.5800351317256001  1.0000
  C   C15       1.0  0.3033037788955448  0.5204154207916493  0.08003513173535146  1.0000
  C   C16       1.0  0.19669622145054327  0.020415422104738918  0.41996486826358237  1.0000
  C   C17       1.0  0.6645156533116248  0.3377240324074181  0.9495955814016382  1.0000
  C   C18       1.0  0.8354843464281327  0.8377240310943284  0.5504044185864779  1.0000
  C   C19       1.0  0.33548434608204464  0.6622759675613988  0.05040441858754413  1.0000
  C   C20       1.0  0.16451565296553675  0.16227596887448853  0.44959558140270456  1.0000
  C   C21       1.0  0.8065768236891667  0.19562559194985146  0.9712608355565273  1.0000
  C   C22       1.0  0.6934231760505906  0.6956255906367618  0.5287391644315891  1.0000
  C   C23       1.0  0.19342317700300915  0.8043744080189654  0.028739164441340385  1.0000
  C   C24       1.0  0.3065768233430788  0.30437440933205506  0.47126083555759346  1.0000
  C   C25       1.0  0.031405718455711294  0.1617749607301317  0.8352681867775384  1.0000
  C   C26       1.0  0.46859428117728213  0.6617749620120382  0.6647318131864349  1.0000
  C   C27       1.0  0.9685942809379582  0.8382250392386852  0.164731813211644  1.0000
  C   C28       1.0  0.5314057195148938  0.3382250379567786  0.3352681868114328  1.0000
  C   C29       1.0  0.14432702923593724  0.18783149211577696  0.8101566046386571  1.0000
  C   C30       1.0  0.35567297039705625  0.6878314908026872  0.6898433953253161  1.0000
  C   C31       1.0  0.8556729714562388  0.8121685078530398  0.18984339535921044  1.0000
  C   C32       1.0  0.6443270289966131  0.3121685091661296  0.3101566046638663  1.0000
  C   C33       1.0  0.08841046330906224  0.308790477965043  0.7805537359948409  1.0000
  C   C34       1.0  0.4115895363239312  0.8087904766519534  0.7194462639691324  1.0000
  C   C35       1.0  0.9115895360846071  0.691209522003774  0.21944626399434153  1.0000
  C   C36       1.0  0.5884104630697381  0.19120952331686356  0.28055373602005007  1.0000
  C   C37       1.0  0.9165998904596264  0.41561292322311366  0.7756885085644714  1.0000
  C   C38       1.0  0.583400109280131  0.9156129219100241  0.7243114914236449  1.0000
  C   C39       1.0  0.08340011023254963  0.5843870767457032  0.22431149143339627  1.0000
  C   C40       1.0  0.4165998901135384  0.08438707805879289  0.2756885085655375  1.0000
  C   C41       1.0  0.8018613864303317  0.39568015225913605  0.8002907956249397  1.0000
  C   C42       1.0  0.6981386133094257  0.8956801535410426  0.6997092043631766  1.0000
  C   C43       1.0  0.19813861296333773  0.6043198477096808  0.19970920436424286  1.0000
  C   C44       1.0  0.3018613873827502  0.10431984642777427  0.300290795634691  1.0000
  C   C45       1.0  0.8593845410223288  0.26675469394873397  0.8296115318780443  1.0000
  C   C46       1.0  0.6406154600159354  0.7667546952306404  0.6703884681187572  1.0000
  C   C47       1.0  0.14061545966984734  0.7332453060200829  0.17038846811982333  1.0000
  C   C48       1.0  0.3593845406762407  0.2332453047381764  0.32961153187911046  1.0000
  C   C49       1.0  0.08285673707774646  0.009744177249110078  0.8668370290363919  1.0000
  C   C50       1.0  0.417143262555247  0.5097441785310166  0.6331629709275816  1.0000
  C   C51       1.0  0.917143262315923  0.9902558227197068  0.13316297095279064  1.0000
  C   C52       1.0  0.5828567368384223  0.4902558214378003  0.3668370290616009  1.0000
  N   N1        1.0  0.3935407725463731  0.5879412796483868  0.9110920108541416  1.0000
  N   N2        1.0  0.10645922708662037  0.08794128096147655  0.5889079891098318  1.0000
  N   N3        1.0  0.606459228145803  0.41205872032043006  0.08890798914372602  1.0000
  N   N4        1.0  0.893540772307049  0.9120587190073404  0.41109201087935066  1.0000
  N   N5        1.0  0.9538790689164521  0.09492300942905477  0.9582295551405574  1.0000
  N   N6        1.0  0.5461209308233054  0.5949230081159651  0.5417704448475589  1.0000
  N   N7        1.0  0.046120931775723996  0.9050769905397622  0.04177044485731025  1.0000
  N   N8        1.0  0.45387906857036403  0.4050769918528518  0.45822955514162356  1.0000
  N   N9        1.0  0.3311246237614521  0.10699491908998672  0.8137183170943004  1.0000
  N   N10       1.0  0.16887537587154136  0.6069949177768971  0.6862816828696728  1.0000
  N   N11       1.0  0.6688753756322173  0.8930050808788302  0.18628168289488195  1.0000
  N   N12       1.0  0.8311246248206346  0.3930050821919199  0.3137183171281948  1.0000
  O   O1        1.0  0.7814769408209475  0.17511870920166828  0.0002672857530543264  1.0000
  O   O2        1.0  0.7185230583333979  0.6751187104835749  0.49973271426133725  1.0000
  O   O3        1.0  0.21852305857272192  0.8248812907671486  0.9997327142361281  1.0000
  O   O4        1.0  0.2814769410602716  0.3248812894852421  0.5002672857278452  1.0000
  O   O5        1.0  0.20653639563014908  0.7822611914413106  0.8654000379483342  1.0000
  O   O6        1.0  0.29346360400284444  0.2822611927544003  0.6345999620156392  1.0000
  O   O7        1.0  0.7934636050620268  0.2177388085275063  0.13459996204953342  1.0000
  O   O8        1.0  0.706536395390825  0.7177388072144165  0.36540003797354337  1.0000
  O   O9        1.0  0.007287431225168451  0.09526528943672394  0.8910516952607398  1.0000
  O   O10       1.0  0.49271256970633165  0.5952652907186305  0.6089483047119185  1.0000
  O   O11       1.0  0.9927125694670075  0.904734710532093  0.10894830473712774  1.0000
  O   O12       1.0  0.5072874309858444  0.40473470925018634  0.39105169528594896  1.0000
  O   O13       1.0  0.41750002184026375  0.2399580955775908  0.8356558645311684  1.0000
  O   O14       1.0  0.08249997779272972  0.7399580968594973  0.664344135432805  1.0000
  O   O15       1.0  0.5824999788519123  0.7600419043912261  0.16434413546669943  1.0000
  O   O16       1.0  0.9175000216009396  0.2600419031093195  0.33565586455637736  1.0000
  O   O17       1.0  0.39261100960600287  0.9189464722800912  0.7930438176686411  1.0000
  O   O18       1.0  0.1073889913254973  0.41894647359318093  0.7069561823040174  1.0000
  O   O19       1.0  0.6073889910861732  0.08105352768872569  0.2069561823292265  1.0000
  O   O20       1.0  0.8926110093666787  0.5810535289706322  0.2930438176938503  1.0000
