data_image0
_chemical_formula_structural       H64C80N8O20Cl8
_chemical_formula_sum              "H64 C80 N8 O20 Cl8"
_cell_length_a       9.991416245987997
_cell_length_b       12.904333996336494
_cell_length_c       15.681606724191822
_cell_angle_alpha    69.24225798415796
_cell_angle_beta     80.83257433593695
_cell_angle_gamma    90.02021713897497

_space_group_name_H-M_alt    "P 1"
_space_group_IT_number       1

loop_
  _space_group_symop_operation_xyz
  'x, y, z'

loop_
  _atom_site_type_symbol
  _atom_site_label
  _atom_site_symmetry_multiplicity
  _atom_site_fract_x
  _atom_site_fract_y
  _atom_site_fract_z
  _atom_site_occupancy
  H   H1        1.0  0.8941115224403416  0.7202348169878482  0.18017362704870835  1.0000
  H   H2        1.0  0.1058884775660165  0.27976518307485554  0.8198263726727674  1.0000
  H   H3        1.0  0.15390617369852513  0.02110001747137808  0.0668870697815266  1.0000
  H   H4        1.0  0.8460938261346223  0.9788999822909594  0.9331129306320392  1.0000
  H   H5        1.0  0.006530074980501583  0.10096150148588494  0.16913428367569283  1.0000
  H   H6        1.0  0.9934699250258563  0.8990384985768187  0.8308657160457829  1.0000
  H   H7        1.0  0.8051590570519377  0.9911074262396251  0.2764987248694739  1.0000
  H   H8        1.0  0.19484094295442017  0.008892573823078622  0.7235012748520017  1.0000
  H   H9        1.0  0.5933201946009359  0.6477457903548743  0.3399280485565022  1.0000
  H   H10       1.0  0.4066798054054221  0.35225420970782945  0.6600719511649734  1.0000
  H   H11       1.0  0.5805453856871026  0.2919968529350782  0.8396202345443463  1.0000
  H   H12       1.0  0.41945461414604496  0.708003146827259  0.16037976586921923  1.0000
  H   H13       1.0  0.3400320485399445  0.9813024572045216  0.9406558637852515  1.0000
  H   H14       1.0  0.6599679514664134  0.018697542858181964  0.0593441359362242  1.0000
  H   H15       1.0  0.5022717699822232  0.9125830575215244  0.8374025133662639  1.0000
  H   H16       1.0  0.4977282300241348  0.08741694254117917  0.16259748635521168  1.0000
  H   H17       1.0  0.7000719612381959  0.03244535650906501  0.7354441973916963  1.0000
  H   H18       1.0  0.2999280387681621  0.9675546435536387  0.2645558023297794  1.0000
  H   H19       1.0  0.9363658028041607  0.262745050907814  0.6308505005413061  1.0000
  H   H20       1.0  0.06363419720219725  0.7372549491548896  0.3691494991801696  1.0000
  H   H21       1.0  0.2707346075455356  0.35627158334925396  0.4577839045145124  1.0000
  H   H22       1.0  0.7292653924608224  0.6437284167134497  0.5422160952069632  1.0000
  H   H23       1.0  0.4859763887986295  0.456844604349561  0.3567810611285253  1.0000
  H   H24       1.0  0.5140236112077285  0.5431553957131429  0.6432189385929503  1.0000
  H   H25       1.0  0.431470523591733  0.7213349120258358  0.4469946945033376  1.0000
  H   H26       1.0  0.5685294764142393  0.27866508881093666  0.5530053052201378  1.0000
  H   H27       1.0  0.2130650058277631  0.6344285024400443  0.5501122061399377  1.0000
  H   H28       1.0  0.786934994178595  0.3655714976226594  0.4498877935815379  1.0000
  H   H29       1.0  0.9320695509925597  0.4278622498693901  0.6656720154694467  1.0000
  H   H30       1.0  0.06793044901341252  0.5721377509673824  0.33432798425402876  1.0000
  H   H31       1.0  0.04628486002675341  0.5472260421186222  0.6283011023975655  1.0000
  H   H32       1.0  0.9537151398063942  0.452773957643715  0.3716988980160001  1.0000
  H   H33       1.0  0.23229441108873758  0.7795661163487061  0.8218854353322973  1.0000
  H   H34       1.0  0.7677055889172348  0.22043388448806656  0.17811456439117807  1.0000
  H   H35       1.0  0.4366529386346481  0.4799680865404255  0.93745947157251  1.0000
  H   H36       1.0  0.5633470611984994  0.5200319132219118  0.06254052884105567  1.0000
  H   H37       1.0  0.34554063968757764  0.39996662463625193  0.8333748884175387  1.0000
  H   H38       1.0  0.6544593601455698  0.6000333751260852  0.16662511199602703  1.0000
  H   H39       1.0  0.1992266319492537  0.5087386989096058  0.7245241805151591  1.0000
  H   H40       1.0  0.8007733680571043  0.49126130115309796  0.2754758192063166  1.0000
  H   H41       1.0  0.01492072419743348  0.8509466457346588  0.6604547976867137  1.0000
  H   H42       1.0  0.9850792756357142  0.14905335402767847  0.3395452027268519  1.0000
  H   H43       1.0  0.2493354302203873  0.20671028664799976  0.16243714240862805  1.0000
  H   H44       1.0  0.7506645706136168  0.7932897131145176  0.8375628580049476  1.0000
  H   H45       1.0  0.06113170399806396  0.5184284834258873  0.06271572215772374  1.0000
  H   H46       1.0  0.938868296008294  0.4815715166368164  0.9372842775637519  1.0000
  H   H47       1.0  0.17513308463565463  0.5868519646252618  0.16460621729121694  1.0000
  H   H48       1.0  0.8248669153707032  0.41314803543744194  0.8353937824302587  1.0000
  H   H49       1.0  0.32299023215899186  0.4660107012988468  0.26534683699786715  1.0000
  H   H50       1.0  0.6770097676741558  0.5339892984634904  0.7346531634156984  1.0000
  H   H51       1.0  0.5045964828316777  0.2359589901314236  0.36947348589244233  1.0000
  H   H52       1.0  0.49540351717468023  0.7640410099312801  0.6305265138290334  1.0000
  H   H53       1.0  0.7501610674382941  0.14191062578700783  0.5437587209289735  1.0000
  H   H54       1.0  0.24983893239485347  0.8580893739753294  0.45624127948459214  1.0000
  H   H55       1.0  0.9145884268302356  0.0411829266852225  0.6446980418658727  1.0000
  H   H56       1.0  0.08541157300291206  0.9588170730771147  0.35530195854769303  1.0000
  H   H57       1.0  0.9065384200994802  0.777642430092566  0.5531415001999508  1.0000
  H   H58       1.0  0.09346157990687787  0.2223575699701378  0.4468584995215248  1.0000
  H   H59       1.0  0.7396756803681381  0.8646265230092879  0.4501878305926207  1.0000
  H   H60       1.0  0.2603243194650093  0.13537347675304948  0.5498121698209449  1.0000
  H   H61       1.0  0.5144405253568114  0.07030335581663708  0.33612595447858334  1.0000
  H   H62       1.0  0.4855594746495466  0.9296966442460667  0.6638740452428923  1.0000
  H   H63       1.0  0.608446324486482  0.9502653034943527  0.37417422594970706  1.0000
  H   H64       1.0  0.391553675519876  0.04973469656835087  0.6258257737717686  1.0000
  C   C1        1.0  0.8366339479031918  0.8486182251564997  0.2352669544397578  1.0000
  C   C2        1.0  0.16336605192995565  0.15138177460583757  0.7647330459738079  1.0000
  C   C3        1.0  0.9189632620085247  0.8033517604544473  0.1778488120532666  1.0000
  C   C4        1.0  0.08103673782462269  0.19664823930788988  0.8221511883602989  1.0000
  C   C5        1.0  0.03248802394768088  0.8662948161651156  0.11839496341338977  1.0000
  C   C6        1.0  0.9675119770591482  0.133705184671837  0.8816050363100957  1.0000
  C   C7        1.0  0.06513658561911478  0.9733132713034481  0.11432411489572422  1.0000
  C   C8        1.0  0.9348634142140327  0.02668672845888918  0.8856758855178414  1.0000
  C   C9        1.0  0.9826084134566712  0.01737187664574532  0.17197485864598414  1.0000
  C   C10       1.0  0.017391586376476413  0.982628123116592  0.8280251417675815  1.0000
  C   C11       1.0  0.8692298480305556  0.9556317826414348  0.2323000097512981  1.0000
  C   C12       1.0  0.1307701518025919  0.044368217120902664  0.7676999906622676  1.0000
  C   C13       1.0  0.7140114452626137  0.7839026687763334  0.2994231119821039  1.0000
  C   C14       1.0  0.28598855474374413  0.2160973312863703  0.7005768877393717  1.0000
  C   C15       1.0  0.6527308213277434  0.1701182822914311  0.7810349022498869  1.0000
  C   C16       1.0  0.3472691786786146  0.8298817177712726  0.21896509747158863  1.0000
  C   C17       1.0  0.5624216718608408  0.20901269970492947  0.8393202433805242  1.0000
  C   C18       1.0  0.4375783279723068  0.7909873000574079  0.1606797570330414  1.0000
  C   C19       1.0  0.4512544715575919  0.1405337171735527  0.8957536562905867  1.0000
  C   C20       1.0  0.5487455282755557  0.8594662825887845  0.10424634412297892  1.0000
  C   C21       1.0  0.42780912289928097  0.03374305004388439  0.895900065424515  1.0000
  C   C22       1.0  0.572190877107077  0.9662569500188194  0.10409993429696071  1.0000
  C   C23       1.0  0.5185190464884132  0.9957449898914243  0.8378482486374086  1.0000
  C   C24       1.0  0.4814809533447343  0.004255009870913022  0.16215175177615698  1.0000
  C   C25       1.0  0.6304599813981316  0.06323516341153668  0.7803957147244234  1.0000
  C   C26       1.0  0.3695400186082262  0.936764836651167  0.21960428499705228  1.0000
  C   C27       1.0  0.7705237962872594  0.2463034048820805  0.7222358776167306  1.0000
  C   C28       1.0  0.22947620371909844  0.7536965951806232  0.27776412210474505  1.0000
  C   C29       1.0  0.30259687532634877  0.43732775090111664  0.45664148628224616  1.0000
  C   C30       1.0  0.6974031246800092  0.562672249161587  0.5433585134392295  1.0000
  C   C31       1.0  0.4221962053538105  0.4930395180751051  0.40075123940694735  1.0000
  C   C32       1.0  0.5778037946525474  0.5069604819875987  0.5992487603145282  1.0000
  C   C33       1.0  0.39041388855945147  0.6408927081610787  0.4513507529307466  1.0000
  C   C34       1.0  0.6095861114469064  0.3591072919016251  0.548649246790729  1.0000
  C   C35       1.0  0.2691593222336368  0.5910098754887438  0.5088721221599125  1.0000
  C   C36       1.0  0.7308406777727212  0.40899012457395983  0.4911278775615631  1.0000
  C   C37       1.0  0.2241068833854221  0.4865884416810706  0.5121312161687603  1.0000
  C   C38       1.0  0.7758931166209357  0.5134115583816331  0.4878687835527153  1.0000
  C   C39       1.0  0.09601498648459629  0.4247527056864447  0.5726074628041538  1.0000
  C   C40       1.0  0.9039850135217617  0.575247294376259  0.42739253691732176  1.0000
  C   C41       1.0  0.20638331928265108  0.6512015753091315  0.7661409642170778  1.0000
  C   C42       1.0  0.7936166805504965  0.34879842445320597  0.23385903619648782  1.0000
  C   C43       1.0  0.2574971559925144  0.6967116968926919  0.8243056227829983  1.0000
  C   C44       1.0  0.7425028440138436  0.3032883031700119  0.17569437693847723  1.0000
  C   C45       1.0  0.3401498384954207  0.6342916180082381  0.8848938725982284  1.0000
  C   C46       1.0  0.6598501615109372  0.36570838205446565  0.11510612712324729  1.0000
  C   C47       1.0  0.3726342149514285  0.5275345095645414  0.8890892687414743  1.0000
  C   C48       1.0  0.6273657860557862  0.4724654904983424  0.11091073098001124  1.0000
  C   C49       1.0  0.32176406384335776  0.48336502813635895  0.8304324083174331  1.0000
  C   C50       1.0  0.6782359359897897  0.5166349716259785  0.16956759209613248  1.0000
  C   C51       1.0  0.2393065568040737  0.544501842464195  0.7692540282664984  1.0000
  C   C52       1.0  0.7606934432022843  0.4554981575985088  0.2307459714549771  1.0000
  C   C53       1.0  0.11583510112072395  0.715088199801285  0.7016354137123448  1.0000
  C   C54       1.0  0.8841648988856339  0.2849118002614189  0.2983645860091307  1.0000
  C   C55       1.0  0.2951510543073954  0.3286495839949874  0.2200354841846708  1.0000
  C   C56       1.0  0.7048489456989626  0.6713504160677164  0.7799645155368048  1.0000
  C   C57       1.0  0.23190689391084912  0.2898839451030377  0.1625697166419068  1.0000
  C   C58       1.0  0.7680931070963655  0.7101160549598461  0.8374302830795788  1.0000
  C   C59       1.0  0.1482810855291405  0.3587687708933483  0.10701842547814691  1.0000
  C   C60       1.0  0.8517189143040069  0.6412312288689889  0.8929815749354187  1.0000
  C   C61       1.0  0.1266815128286464  0.4656431602848069  0.10696872340455774  1.0000
  C   C62       1.0  0.8733184870045011  0.5343568394775303  0.893031277009008  1.0000
  C   C63       1.0  0.19041480304503747  0.5035078445519033  0.1642350470515377  1.0000
  C   C64       1.0  0.8095851969613205  0.4964921555108004  0.8357649526699379  1.0000
  C   C65       1.0  0.27410092655890467  0.43563250296013856  0.22088575643003586  1.0000
  C   C66       1.0  0.7258990734474533  0.5643674971025651  0.7791142432914397  1.0000
  C   C67       1.0  0.38393347442355324  0.25233665824044516  0.27816143682766975  1.0000
  C   C68       1.0  0.6160665255828047  0.7476633418222585  0.721838562893806  1.0000
  C   C69       1.0  0.7815909624593739  0.06101399978289035  0.5445698734453885  1.0000
  C   C70       1.0  0.2184090375469842  0.9389860002798133  0.45543012627608703  1.0000
  C   C71       1.0  0.8731345219504258  0.005201474718014701  0.6004665101525759  1.0000
  C   C72       1.0  0.12686547788272168  0.9947985250443224  0.3995334902609899  1.0000
  C   C73       1.0  0.8673744661536379  0.8578593066688994  0.5491836295181606  1.0000
  C   C74       1.0  0.13262553385272013  0.14214069339380422  0.45081637020331505  1.0000
  C   C75       1.0  0.7748509842076441  0.907772982093625  0.4917343862784718  1.0000
  C   C76       1.0  0.22514901562550335  0.09222701766871241  0.5082656141350939  1.0000
  C   C77       1.0  0.7311582016069063  0.011981528344690524  0.4887979503580268  1.0000
  C   C78       1.0  0.26884179822624127  0.9880184714176469  0.5112020500555388  1.0000
  C   C79       1.0  0.6332883868033946  0.07380545227364886  0.4283943441604914  1.0000
  C   C80       1.0  0.36671161302975286  0.9261945474886883  0.5716056562530742  1.0000
  N   N1        1.0  0.46522345915926927  0.5926673371719984  0.39837425296267587  1.0000
  N   N2        1.0  0.5347765418479453  0.40733266289088543  0.6016257467588096  1.0000
  N   N3        1.0  0.021293077384512093  0.47122353940480494  0.625770219341789  1.0000
  N   N4        1.0  0.9787069224486356  0.5287764603575323  0.3742297810717766  1.0000
  N   N5        1.0  0.9153317378108802  0.9058053753807584  0.6024829267508395  1.0000
  N   N6        1.0  0.0846682620222673  0.094194624381579  0.39751707366272615  1.0000
  N   N7        1.0  0.5831938811075789  0.026602946960771204  0.37635945164227147  1.0000
  N   N8        1.0  0.4168061188983934  0.9733970538760012  0.6236405480812042  1.0000
  O   O1        1.0  0.6886520550412406  0.6863523640623157  0.29408090286555716  1.0000
  O   O2        1.0  0.3113479449651174  0.3136476360003878  0.7059190968559186  1.0000
  O   O3        1.0  0.6410075403237456  0.8197284996825991  0.35380702159120736  1.0000
  O   O4        1.0  0.35899245950940184  0.1802715000797382  0.6461929788223583  1.0000
  O   O5        1.0  0.854077123139481  0.2062957065957278  0.6685503491878516  1.0000
  O   O6        1.0  0.14592287686649136  0.7937042942410446  0.331449650535624  1.0000
  O   O7        1.0  0.7868890629680105  0.3406240829878988  0.7244994189896221  1.0000
  O   O8        1.0  0.2131109368651371  0.6593759167744384  0.2755005814239434  1.0000
  O   O9        1.0  0.0632774319850421  0.3308780101548385  0.5707443490469353  1.0000
  O   O10       1.0  0.9367225680213158  0.6691219899078653  0.42925565067454036  1.0000
  O   O11       1.0  0.08794527762353364  0.8131104104028263  0.7059612814013659  1.0000
  O   O12       1.0  0.9120547223828246  0.18688958965987731  0.2940387183201096  1.0000
  O   O13       1.0  0.0695593297802255  0.6780819390497227  0.6481036627345049  1.0000
  O   O14       1.0  0.9304406700529219  0.3219180607126146  0.3518963376790608  1.0000
  O   O15       1.0  0.4407888498316906  0.2921428937606392  0.3318972477697005  1.0000
  O   O16       1.0  0.5592111510023136  0.7078571060018782  0.6681027526438752  1.0000
  O   O17       1.0  0.4014715860698103  0.15816165593382955  0.27543605769351687  1.0000
  O   O18       1.0  0.598528413763337  0.8418383438285079  0.7245639427200488  1.0000
  O   O19       1.0  0.6012789549488806  0.16834173498501354  0.4293727525246462  1.0000
  O   O20       1.0  0.3987210458851234  0.8316582647775039  0.5706272478889295  1.0000
  Cl  Cl1       1.0  0.13772968561368445  0.8104128557941529  0.04868088653375483  1.0000
  Cl  Cl2       1.0  0.8622703143926734  0.1895871442685507  0.9513191131877209  1.0000
  Cl  Cl3       1.0  0.3381681744032507  0.18961810697992007  0.9663112996886052  1.0000
  Cl  Cl4       1.0  0.6618318256031073  0.8103818930827835  0.03368870003287048  1.0000
  Cl  Cl5       1.0  0.40575299604502857  0.6907459522053934  0.9560834038901758  1.0000
  Cl  Cl6       1.0  0.5942470037881189  0.309254047556944  0.04391659652338994  1.0000
  Cl  Cl7       1.0  0.06717484845435366  0.3105477964548747  0.0372790931127394  1.0000
  Cl  Cl8       1.0  0.9328251515520043  0.6894522036078291  0.9627209066087363  1.0000
