data_image0
_chemical_formula_structural       H72C96N16O24
_chemical_formula_sum              "H72 C96 N16 O24"
_cell_length_a       11.854456937414213
_cell_length_b       11.938799719799036
_cell_length_c       14.17353326592659
_cell_angle_alpha    90.0
_cell_angle_beta     103.42457039841607
_cell_angle_gamma    90.0

_space_group_name_H-M_alt    "P 1"
_space_group_IT_number       1

loop_
  _space_group_symop_operation_xyz
  'x, y, z'

loop_
  _atom_site_type_symbol
  _atom_site_label
  _atom_site_symmetry_multiplicity
  _atom_site_fract_x
  _atom_site_fract_y
  _atom_site_fract_z
  _atom_site_occupancy
  H   H1        1.0  0.38007239206450133  0.8323589953117392  0.565440636013173  1.0000
  H   H2        1.0  0.6199276075160133  0.8323589953117392  0.9345593633825293  1.0000
  H   H3        1.0  0.8800723928445677  0.3323589953033228  0.5654406366632613  1.0000
  H   H4        1.0  0.11992760760376589  0.3323589953033228  0.934559363606039  1.0000
  H   H5        1.0  0.6199276078867989  0.16764100470509355  0.4345593639613709  1.0000
  H   H6        1.0  0.3800723924352869  0.16764100470509355  0.06544063659201467  1.0000
  H   H7        1.0  0.11992760710673263  0.66764100471351  0.43455936331128264  1.0000
  H   H8        1.0  0.8800723923475343  0.66764100471351  0.06544063636850504  1.0000
  H   H9        1.0  0.3783453552945923  0.5205720546340329  0.6401383485580682  1.0000
  H   H10       1.0  0.6216546451537412  0.5205720546340329  0.8598616517112321  1.0000
  H   H11       1.0  0.8783453552068395  0.020572054625616436  0.6401383483345585  1.0000
  H   H12       1.0  0.12165464524149382  0.020572054625616436  0.8598616519347416  1.0000
  H   H13       1.0  0.6216546446567079  0.4794279453828  0.35986165141647586  1.0000
  H   H14       1.0  0.378345354797559  0.4794279453828  0.1401383482633118  1.0000
  H   H15       1.0  0.12165464474446055  0.9794279453912164  0.35986165163998546  1.0000
  H   H16       1.0  0.8783453547103643  0.9794279453912164  0.14013834874545075  1.0000
  H   H17       1.0  0.3050784757976223  0.8237820895587945  0.7983785521866592  1.0000
  H   H18       1.0  0.6949215237834501  0.8237820895587945  0.7016214479146917  1.0000
  H   H19       1.0  0.8050784757098698  0.32378208955037807  0.7983785519631496  1.0000
  H   H20       1.0  0.1949215238706449  0.32378208955037807  0.7016214474325527  1.0000
  H   H21       1.0  0.6949215241536779  0.17621791045803836  0.20162144778788482  1.0000
  H   H22       1.0  0.3050784761678501  0.17621791045803836  0.2983785520598522  1.0000
  H   H23       1.0  0.19492152424143055  0.6762179104664546  0.20162144801139445  1.0000
  H   H24       1.0  0.8050784760806552  0.6762179104664546  0.29837855254199114  1.0000
  H   H25       1.0  0.33292565486861164  0.4140848432025808  0.8633571910114065  1.0000
  H   H26       1.0  0.6670743455791641  0.4140848432025808  0.6366428085522452  1.0000
  H   H27       1.0  0.8329256547814168  0.9140848432109973  0.8633571914935456  1.0000
  H   H28       1.0  0.16707434566691667  0.9140848432109973  0.6366428087757547  1.0000
  H   H29       1.0  0.6670743450826886  0.5859151568142519  0.13664280896313735  1.0000
  H   H30       1.0  0.33292565437213617  0.5859151568142519  0.3633571914222989  1.0000
  H   H31       1.0  0.16707434516988343  0.08591515680583557  0.1366428084809984  1.0000
  H   H32       1.0  0.8329256542843837  0.08591515680583557  0.3633571911987893  1.0000
  H   H33       1.0  0.28731315510696803  0.5446522114963039  0.9854959329694337  1.0000
  H   H34       1.0  0.7126868453413655  0.5446522114963039  0.5145040672998665  1.0000
  H   H35       1.0  0.7873131550192154  0.044652211487887616  0.9854959327459241  1.0000
  H   H36       1.0  0.2126868445612992  0.044652211487887616  0.5145040666497782  1.0000
  H   H37       1.0  0.7126868448443323  0.45534778852052876  0.014504067005110222  1.0000
  H   H38       1.0  0.2873131554771959  0.45534778852052876  0.4854959328426268  1.0000
  H   H39       1.0  0.2126868449320848  0.9553477885289452  0.01450406722861985  1.0000
  H   H40       1.0  0.7873131553900011  0.9553477885289452  0.4854959333247657  1.0000
  H   H41       1.0  0.07564331245950794  0.460395270798003  0.7069524344592464  1.0000
  H   H42       1.0  0.9243566871215644  0.460395270798003  0.7930475656421044  1.0000
  H   H43       1.0  0.5756433123723131  0.9603952708064194  0.7069524349413853  1.0000
  H   H44       1.0  0.4243566872087592  0.9603952708064194  0.7930475651599656  1.0000
  H   H45       1.0  0.9243566874917923  0.5396047292188297  0.2930475655152976  1.0000
  H   H46       1.0  0.07564331283029356  0.5396047292188297  0.206952435038088  1.0000
  H   H47       1.0  0.4243566875789871  0.03960472921041338  0.29304756503315865  1.0000
  H   H48       1.0  0.575643312742541  0.03960472921041338  0.2069524348145784  1.0000
  H   H49       1.0  0.13769198232454025  0.4760758914963751  0.5514563729617072  1.0000
  H   H50       1.0  0.8623080181237931  0.4760758914963751  0.948543627307593  1.0000
  H   H51       1.0  0.6376919822367877  0.9760758915047915  0.5514563727381976  1.0000
  H   H52       1.0  0.3623080182115459  0.9760758915047915  0.9485436275311027  1.0000
  H   H53       1.0  0.8623080176267601  0.5239241085204577  0.4485436270128368  1.0000
  H   H54       1.0  0.13769198182750697  0.5239241085204577  0.051456372666950925  1.0000
  H   H55       1.0  0.36230801771451254  0.023924108512041263  0.4485436272363464  1.0000
  H   H56       1.0  0.6376919817397544  0.023924108512041263  0.05145637244344129  1.0000
  H   H57       1.0  0.9677048712244363  0.8073057866961386  0.6712599701881692  1.0000
  H   H58       1.0  0.03229512922333946  0.8073057866961386  0.8287400293754823  1.0000
  H   H59       1.0  0.4677048713121889  0.3073057866877222  0.6712599704116788  1.0000
  H   H60       1.0  0.5322951291361447  0.3073057866877222  0.8287400298576213  1.0000
  H   H61       1.0  0.03229512872686398  0.19269421332069422  0.3287400297863746  1.0000
  H   H62       1.0  0.9677048715952219  0.19269421332069422  0.1712599707670109  1.0000
  H   H63       1.0  0.5322951286391113  0.6926942133291105  0.328740029562865  1.0000
  H   H64       1.0  0.46770487081515555  0.6926942133291105  0.17125997011692262  1.0000
  H   H65       1.0  0.03526560834823429  0.8078833363796771  0.5170651655689749  1.0000
  H   H66       1.0  0.9647343912322802  0.8078833363796771  0.9829348338267275  1.0000
  H   H67       1.0  0.5352656082610395  0.3078833363712607  0.5170651660511139  1.0000
  H   H68       1.0  0.46473439132003297  0.3078833363712607  0.9829348340502372  1.0000
  H   H69       1.0  0.964734391603066  0.19211666363715568  0.48293483440556906  1.0000
  H   H70       1.0  0.03526560871901992  0.19211666363715568  0.017065166147816505  1.0000
  H   H71       1.0  0.4647343916902607  0.692116663645572  0.4829348339234302  1.0000
  H   H72       1.0  0.5352656086312673  0.692116663645572  0.017065165924306867  1.0000
  C   C1        1.0  0.34132718068355433  0.6621252517445751  0.743120975222362  1.0000
  C   C2        1.0  0.6586728197647792  0.6621252517445751  0.7568790250469383  1.0000
  C   C3        1.0  0.8413271805958017  0.16212525173615872  0.7431209749988522  1.0000
  C   C4        1.0  0.1586728198525318  0.16212525173615872  0.7568790252704479  1.0000
  C   C5        1.0  0.6586728192677459  0.33787474827225766  0.25687902475218205  1.0000
  C   C6        1.0  0.3413271801865211  0.33787474827225766  0.24312097492760562  1.0000
  C   C7        1.0  0.1586728193554985  0.8378747482806741  0.25687902497569165  1.0000
  C   C8        1.0  0.8413271809660295  0.8378747482806741  0.2431209748720454  1.0000
  C   C9        1.0  0.2931893794343365  0.6928128282680689  0.8991419411023248  1.0000
  C   C10       1.0  0.7068106210139969  0.6928128282680689  0.6008580591669753  1.0000
  C   C11       1.0  0.793189379346584  0.1928128282596526  0.8991419408788152  1.0000
  C   C12       1.0  0.20681062110119186  0.1928128282596526  0.6008580586848364  1.0000
  C   C13       1.0  0.7068106205169638  0.3071871717487638  0.10085805887221905  1.0000
  C   C14       1.0  0.2931893789373032  0.3071871717487638  0.3991419408075686  1.0000
  C   C15       1.0  0.20681062060471636  0.8071871717571802  0.10085805909572867  1.0000
  C   C16       1.0  0.7931893788501084  0.8071871717571802  0.39914194128970754  1.0000
  C   C17       1.0  0.31398944154492825  0.7342060605525887  0.8125046993706545  1.0000
  C   C18       1.0  0.6860105580361442  0.7342060605525887  0.6874953007306964  1.0000
  C   C19       1.0  0.8139894414571757  0.23420606054417226  0.8125046991471447  1.0000
  C   C20       1.0  0.186010558123339  0.23420606054417226  0.6874953002485575  1.0000
  C   C21       1.0  0.6860105584063719  0.2657939394642441  0.1874953006038895  1.0000
  C   C22       1.0  0.31398944191515604  0.2657939394642441  0.31250469924384755  1.0000
  C   C23       1.0  0.18601055849412462  0.7657939394726605  0.18749530082739915  1.0000
  C   C24       1.0  0.8139894418279613  0.7657939394726605  0.3125046997259865  1.0000
  C   C25       1.0  0.36267254201208876  0.7020840466985482  0.6504453383304362  1.0000
  C   C26       1.0  0.6373274584362447  0.7020840466985482  0.8495546619388641  1.0000
  C   C27       1.0  0.8626725419243362  0.20208404669013172  0.6504453381069265  1.0000
  C   C28       1.0  0.1373274585239973  0.20208404669013172  0.8495546621623739  1.0000
  C   C29       1.0  0.6373274579392114  0.2979159533182847  0.3495546616441078  1.0000
  C   C30       1.0  0.36267254151505557  0.2979159533182847  0.15044533803567983  1.0000
  C   C31       1.0  0.13732745802696403  0.7979159533267011  0.3495546618676174  1.0000
  C   C32       1.0  0.862672541427303  0.7979159533267011  0.15044533781217023  1.0000
  C   C33       1.0  0.3470641603072724  0.5447588637586658  0.7619697867220855  1.0000
  C   C34       1.0  0.6529358392738  0.5447588637586658  0.7380302133792654  1.0000
  C   C35       1.0  0.8470641602195198  0.04475886375024934  0.7619697864985758  1.0000
  C   C36       1.0  0.15293583936155264  0.04475886375024934  0.7380302136027751  1.0000
  C   C37       1.0  0.6529358396440279  0.4552411362581671  0.23803021325245857  1.0000
  C   C38       1.0  0.3470641606775002  0.4552411362581671  0.2619697865952785  1.0000
  C   C39       1.0  0.15293583973178043  0.9552411362665835  0.23803021347596817  1.0000
  C   C40       1.0  0.8470641605903054  0.9552411362665835  0.2619697870774174  1.0000
  C   C41       1.0  0.32819877381906765  0.5038310367184258  0.8502387938982336  1.0000
  C   C42       1.0  0.6718012266292659  0.5038310367184258  0.6497612063710666  1.0000
  C   C43       1.0  0.8281987737313151  0.003831036710009396  0.850238793674724  1.0000
  C   C44       1.0  0.1718012267164607  0.003831036710009396  0.6497612058889276  1.0000
  C   C45       1.0  0.6718012261322327  0.496168963298407  0.1497612060763103  1.0000
  C   C46       1.0  0.32819877332203434  0.496168963298407  0.3502387936034773  1.0000
  C   C47       1.0  0.17180122621998523  0.9961689633068234  0.14976120629981993  1.0000
  C   C48       1.0  0.8281987732348395  0.9961689633068234  0.35023879408561626  1.0000
  C   C49       1.0  0.3017231632949454  0.5763250009621419  0.9173881557394559  1.0000
  C   C50       1.0  0.698276837153388  0.5763250009621419  0.5826118445298444  1.0000
  C   C51       1.0  0.801723163207193  0.07632500095372556  0.9173881555159462  1.0000
  C   C52       1.0  0.1982768363738796  0.07632500095372556  0.5826118445854046  1.0000
  C   C53       1.0  0.6982768366563549  0.4236749990546908  0.08261184423508815  1.0000
  C   C54       1.0  0.3017231627979121  0.4236749990546908  0.41738815544469954  1.0000
  C   C55       1.0  0.19827683674410743  0.9236749990631071  0.08261184445859777  1.0000
  C   C56       1.0  0.8017231635774208  0.9236749990631071  0.41738815538913926  1.0000
  C   C57       1.0  0.017691444663164167  0.6334549316090966  0.7034863438517324  1.0000
  C   C58       1.0  0.9823085549173505  0.6334549316090966  0.7965136555439699  1.0000
  C   C59       1.0  0.5176914445759694  0.13345493160068017  0.7034863443338712  1.0000
  C   C60       1.0  0.4823085550051031  0.13345493160068017  0.7965136557674795  1.0000
  C   C61       1.0  0.9823085552881362  0.36654506840773626  0.29651365612281155  1.0000
  C   C62       1.0  0.017691445033949788  0.36654506840773626  0.203486344430574  1.0000
  C   C63       1.0  0.4823085553753309  0.8665450684161526  0.2965136556406726  1.0000
  C   C64       1.0  0.5176914449461971  0.8665450684161526  0.20348634420706435  1.0000
  C   C65       1.0  0.06418071330550464  0.5391847983951569  0.667039821378136  1.0000
  C   C66       1.0  0.935819287142271  0.5391847983951569  0.8329601781855157  1.0000
  C   C67       1.0  0.5641807132183099  0.03918479838674056  0.6670398218602749  1.0000
  C   C68       1.0  0.4358192872300237  0.03918479838674056  0.8329601784090254  1.0000
  C   C69       1.0  0.9358192866457957  0.46081520162167583  0.3329601785964079  1.0000
  C   C70       1.0  0.06418071280902915  0.46081520162167583  0.16703982178902826  1.0000
  C   C71       1.0  0.4358192867329904  0.9608152016300922  0.332960178114269  1.0000
  C   C72       1.0  0.5641807127212766  0.9608152016300922  0.16703982156551866  1.0000
  C   C73       1.0  0.09948830577310595  0.5478878826614662  0.5801994354607845  1.0000
  C   C74       1.0  0.9005116946752276  0.5478878826614662  0.9198005648085158  1.0000
  C   C75       1.0  0.5994883056853534  0.04788788265304979  0.5801994352372749  1.0000
  C   C76       1.0  0.4005116947624224  0.04788788265304979  0.9198005643263769  1.0000
  C   C77       1.0  0.9005116950454554  0.45211211735536655  0.4198005646817089  1.0000
  C   C78       1.0  0.09948830527607269  0.45211211735536655  0.08019943516602815  1.0000
  C   C79       1.0  0.4005116942659469  0.952112117363783  0.4198005647372692  1.0000
  C   C80       1.0  0.5994883051888779  0.952112117363783  0.08019943564816709  1.0000
  C   C81       1.0  0.006469129411445762  0.732205806711292  0.6485638602575354  1.0000
  C   C82       1.0  0.9935308710368876  0.732205806711292  0.8514361400117647  1.0000
  C   C83       1.0  0.5064691293236931  0.23220580670287558  0.6485638600340259  1.0000
  C   C84       1.0  0.4935308711246403  0.23220580670287558  0.8514361402352743  1.0000
  C   C85       1.0  0.9935308705398546  0.26779419330554083  0.35143613971700843  1.0000
  C   C86       1.0  0.006469128914412493  0.26779419330554083  0.14856385996277924  1.0000
  C   C87       1.0  0.49353087062760714  0.7677941933139573  0.35143613994051803  1.0000
  C   C88       1.0  0.5064691288266598  0.7677941933139573  0.1485638597392696  1.0000
  C   C89       1.0  0.04240995977108269  0.7333429419609506  0.562296199314509  1.0000
  C   C90       1.0  0.9575900398099896  0.7333429419609506  0.9377038007868419  1.0000
  C   C91       1.0  0.5424099596833301  0.23334294195253436  0.5622961990909994  1.0000
  C   C92       1.0  0.45759003989774233  0.23334294195253436  0.9377038010103514  1.0000
  C   C93       1.0  0.9575900401802175  0.266657058055882  0.43770380066003495  1.0000
  C   C94       1.0  0.04240996014131052  0.266657058055882  0.06229619918770208  1.0000
  C   C95       1.0  0.4575900402679702  0.7666570580642985  0.43770380088354455  1.0000
  C   C96       1.0  0.5424099600535579  0.7666570580642985  0.062296198964192445  1.0000
  N   N1        1.0  0.2657622852627917  0.7713839670773052  0.9638930615303525  1.0000
  N   N2        1.0  0.7342377143177229  0.7713839670773052  0.5361069378653498  1.0000
  N   N3        1.0  0.765762285175597  0.2713839670688888  0.9638930620124914  1.0000
  N   N4        1.0  0.23423771440547553  0.2713839670688888  0.5361069380888595  1.0000
  N   N5        1.0  0.7342377146885085  0.22861603293952765  0.03610693844419147  1.0000
  N   N6        1.0  0.26576228563357734  0.22861603293952765  0.4638930621091941  1.0000
  N   N7        1.0  0.2342377147757033  0.728616032947944  0.03610693796205257  1.0000
  N   N8        1.0  0.7657622855458247  0.728616032947944  0.46389306188568447  1.0000
  N   N9        1.0  0.08931273866030211  0.6435832420622378  0.528586828502535  1.0000
  N   N10       1.0  0.9106872609207703  0.6435832420622378  0.9714131715988158  1.0000
  N   N11       1.0  0.5893127385725495  0.1435832420538214  0.5285868282790255  1.0000
  N   N12       1.0  0.41068726100796515  0.1435832420538214  0.9714131711166769  1.0000
  N   N13       1.0  0.9106872612909981  0.35641675795459504  0.4714131714720088  1.0000
  N   N14       1.0  0.08931273903052993  0.35641675795459504  0.028586828375728145  1.0000
  N   N15       1.0  0.4106872613787508  0.8564167579630114  0.4714131716955185  1.0000
  N   N16       1.0  0.5893127389433351  0.8564167579630114  0.028586828857867053  1.0000
  O   O1        1.0  0.3635124788316791  0.810702337517973  0.6365399387055254  1.0000
  O   O2        1.0  0.6364875207493933  0.810702337517973  0.8634600613958255  1.0000
  O   O3        1.0  0.8635124787439264  0.3107023375095566  0.6365399384820157  1.0000
  O   O4        1.0  0.13648752083658813  0.3107023375095566  0.8634600609136868  1.0000
  O   O5        1.0  0.6364875211196211  0.1892976624988598  0.36346006126901864  1.0000
  O   O6        1.0  0.36351247920190694  0.1892976624988598  0.13653993857871838  1.0000
  O   O7        1.0  0.13648752120737376  0.6892976625072762  0.3634600614925283  1.0000
  O   O8        1.0  0.8635124791147122  0.6892976625072762  0.13653993906085732  1.0000
  O   O9        1.0  0.36900667996197806  0.47109730978003816  0.6972450826748693  1.0000
  O   O10       1.0  0.6309933196190943  0.47109730978003816  0.8027549174264815  1.0000
  O   O11       1.0  0.8690066807414866  0.9710973097884547  0.6972450826193092  1.0000
  O   O12       1.0  0.13099331970628914  0.9710973097884547  0.8027549169443425  1.0000
  O   O13       1.0  0.6309933199893222  0.5289026902367946  0.3027549172996746  1.0000
  O   O14       1.0  0.3690066803322059  0.5289026902367946  0.19724508254806247  1.0000
  O   O15       1.0  0.13099331920981366  0.0289026902283782  0.30275491735523485  1.0000
  O   O16       1.0  0.8690066802450112  0.0289026902283782  0.1972450830302014  1.0000
  O   O17       1.0  0.3796551766599447  0.632138614192871  0.588342105895181  1.0000
  O   O18       1.0  0.6203448237883888  0.632138614192871  0.9116578943741193  1.0000
  O   O19       1.0  0.879655176572192  0.13213861418445463  0.5883421056716713  1.0000
  O   O20       1.0  0.12034482387558362  0.13213861418445463  0.9116578938919803  1.0000
  O   O21       1.0  0.6203448232913555  0.3678613858239617  0.41165789407936293  1.0000
  O   O22       1.0  0.37965517616291145  0.3678613858239617  0.08834210560042474  1.0000
  O   O23       1.0  0.12034482337910814  0.8678613858323782  0.4116578943028725  1.0000
  O   O24       1.0  0.8796551760757165  0.8678613858323782  0.08834210608256367  1.0000
