data_image0
_chemical_formula_structural       H36C28O12ClI12
_chemical_formula_sum              "H36 C28 O12 Cl1 I12"
_cell_length_a       10.191124088510316
_cell_length_b       11.134866923472169
_cell_length_c       11.811761082251264
_cell_angle_alpha    72.67884931279899
_cell_angle_beta     83.01307829357543
_cell_angle_gamma    82.09777609180186

_space_group_name_H-M_alt    "P 1"
_space_group_IT_number       1

loop_
  _space_group_symop_operation_xyz
  'x, y, z'

loop_
  _atom_site_type_symbol
  _atom_site_label
  _atom_site_symmetry_multiplicity
  _atom_site_fract_x
  _atom_site_fract_y
  _atom_site_fract_z
  _atom_site_occupancy
  H   H1        1.0  0.7411779977978505  0.8719977174267747  0.6741744737525663  1.0000
  H   H2        1.0  0.2588220021239551  0.12800228272845998  0.3258255264869674  1.0000
  H   H3        1.0  0.7548487640228289  0.7322198050124106  0.626736355951241  1.0000
  H   H4        1.0  0.2451512359948131  0.26778019542322307  0.37326364339834  1.0000
  H   H5        1.0  0.2043144814103715  0.6393678527053817  0.2686028807379227  1.0000
  H   H6        1.0  0.7956855186653226  0.36063214654627446  0.7313971194919829  1.0000
  H   H7        1.0  0.3520894193131108  0.7091548765344923  0.27198738444813303  1.0000
  H   H8        1.0  0.6479105806086949  0.29084512362074216  0.7280126157914006  1.0000
  H   H9        1.0  0.7817480428366989  0.9789179383211494  0.4447373583424489  1.0000
  H   H10       1.0  0.21825195723899507  0.021082060930506637  0.5552626418874568  1.0000
  H   H11       1.0  0.7976541563875218  0.8208299575480287  0.43310573473352126  1.0000
  H   H12       1.0  0.20234584451189846  0.17917004261911126  0.566894265517503  1.0000
  H   H13       1.0  0.3117258461334879  0.2757765176061255  0.7357131974446621  1.0000
  H   H14       1.0  0.6882741538841541  0.7242234828295082  0.2642868019049188  1.0000
  H   H15       1.0  0.21333950345685648  0.4067713061136776  0.8323550577859109  1.0000
  H   H16       1.0  0.7866604964649494  0.5932286940415569  0.16764494245362296  1.0000
  H   H17       1.0  0.07818592068388978  0.37793430391774346  0.7625361213114452  1.0000
  H   H18       1.0  0.921814079237916  0.6220656962374911  0.23746387892808843  1.0000
  H   H19       1.0  0.41745387753909374  0.5018112853374781  0.3077212697018048  1.0000
  H   H20       1.0  0.5825461225366002  0.49818871391417807  0.6922787305281007  1.0000
  H   H21       1.0  0.02756138155060997  0.9839715380062942  0.3726499843927703  1.0000
  H   H22       1.0  0.9724386184670322  0.016028462429339398  0.6273500149568108  1.0000
  H   H23       1.0  0.9189772087915979  0.9817273983339262  0.26523638143054495  1.0000
  H   H24       1.0  0.08102279113020776  0.01827260182130838  0.7347636188089889  1.0000
  H   H25       1.0  0.8112391945493139  0.705774211317112  0.8410910118407711  1.0000
  H   H26       1.0  0.1887608056222161  0.29422578821494305  0.1589089874991819  1.0000
  H   H27       1.0  0.9588981250439224  0.7767956282860876  0.7750542840069135  1.0000
  H   H28       1.0  0.04110187503177159  0.22320437096556855  0.22494571622299217  1.0000
  H   H29       1.0  0.01231251365962295  0.5061788515881407  0.9115430824253159  1.0000
  H   H30       1.0  0.987687486416071  0.49382114766351554  0.08845691780458981  1.0000
  H   H31       1.0  0.1107370112649609  0.6244953424762912  0.8188881291105404  1.0000
  H   H32       1.0  0.8892629886568449  0.37550465767894325  0.1811118711289934  1.0000
  H   H33       1.0  0.21216713175115814  0.8730460222225471  0.35374919712601516  1.0000
  H   H34       1.0  0.7878328681706477  0.1269539779326874  0.6462508031135186  1.0000
  H   H35       1.0  0.18749325563052752  0.8820431001128438  0.204183969614878  1.0000
  H   H36       1.0  0.8125067444451661  0.11795689913881238  0.7958160306150276  1.0000
  C   C1        1.0  0.3081348754542948  0.5151358125222142  0.47280549327271126  1.0000
  C   C2        1.0  0.691865124621399  0.484864186729442  0.5271945069571944  1.0000
  C   C3        1.0  0.2777029775014605  0.4499844573854522  0.5955819055110189  1.0000
  C   C4        1.0  0.7222970224203453  0.5500155427697824  0.4044180947285148  1.0000
  C   C5        1.0  0.81246698907688  0.7953182957800252  0.6528972610068055  1.0000
  C   C6        1.0  0.1875330108449258  0.20468170437520938  0.3471027392327283  1.0000
  C   C7        1.0  0.24928096924969828  0.6970602194009955  0.3114603154955104  1.0000
  C   C8        1.0  0.7507190306721077  0.302939780754239  0.6885396847440233  1.0000
  C   C9        1.0  0.8525006495573653  0.8933830657392909  0.4469579345315845  1.0000
  C   C10       1.0  0.14749935036444053  0.10661693441594362  0.5530420657079492  1.0000
  C   C11       1.0  0.33652665066448945  0.32669039905362696  0.643040760862976  1.0000
  C   C12       1.0  0.6634733493531525  0.6733096013820068  0.35695923848660494  1.0000
  C   C13       1.0  0.4561385736299216  0.3316210762529982  0.45044251041638794  1.0000
  C   C14       1.0  0.5438614262918842  0.6683789239022364  0.5495574898231458  1.0000
  C   C15       1.0  0.13498609312490928  0.4512627989484449  0.7718458285840568  1.0000
  C   C16       1.0  0.8650139067968966  0.5487372012067896  0.22815417165547697  1.0000
  C   C17       1.0  0.39561676600190177  0.45409278621054733  0.4015906840851017  1.0000
  C   C18       1.0  0.6043832340737922  0.5459072130411088  0.5984093161448039  1.0000
  C   C19       1.0  0.9622435166153095  0.9257450398653705  0.34885421881044315  1.0000
  C   C20       1.0  0.03775648330649635  0.07425496028986418  0.6511457814290905  1.0000
  C   C21       1.0  0.8830076632926233  0.7217556670672728  0.7614200027222912  1.0000
  C   C22       1.0  0.11699233678307075  0.2782443321843833  0.23857999750761447  1.0000
  C   C23       1.0  0.04932196311990137  0.5504599604843454  0.8182507626995221  1.0000
  C   C24       1.0  0.9506780368977406  0.4495400399512884  0.1817492366500588  1.0000
  C   C25       1.0  0.4261985138166466  0.26759083138064593  0.571756309104892  1.0000
  C   C26       1.0  0.5738014861051591  0.7324091687745885  0.4282436911346419  1.0000
  C   C27       1.0  0.17198895908638856  0.8251025476789737  0.29809336211499726  1.0000
  C   C28       1.0  0.8280110410851416  0.17489745185308145  0.7019066372249556  1.0000
  O   O1        1.0  0.1936462865544759  0.5166612339758005  0.6559743546506378  1.0000
  O   O2        1.0  0.8063537133673299  0.48333876617943394  0.34402564558889603  1.0000
  O   O3        1.0  0.907970717784604  0.8463855360983586  0.5588310099615222  1.0000
  O   O4        1.0  0.0920292822330381  0.15361446433727502  0.4411689893880588  1.0000
  O   O5        1.0  0.2488374864735972  0.633457395479077  0.4374899174658252  1.0000
  O   O6        1.0  0.7511625134482087  0.3665426046761576  0.5625100827737085  1.0000
  O   O7        1.0  0.9433160617014216  0.6038505961766313  0.7455618961848991  1.0000
  O   O8        1.0  0.05668393822038426  0.39614940397860327  0.25443810405463463  1.0000
  O   O9        1.0  0.035522157123078296  0.8116648618101652  0.3332118656074811  1.0000
  O   O10       1.0  0.9644778430484519  0.18833513772188995  0.6667881337324717  1.0000
  O   O11       1.0  0.9780424506261874  0.5499927560569283  0.5111370757720972  1.0000
  O   O12       1.0  0.021957549295618172  0.4500072440983062  0.48886292446743645  1.0000
  Cl  Cl1       1.0  0.0  0.0  0.0  1.0000
  I   I1        1.0  0.7516297661605694  0.885596113556792  0.0071381390727059645  1.0000
  I   I2        1.0  0.2483702338570725  0.11440388687884166  0.9928618602768751  1.0000
  I   I3        1.0  0.5350407646432244  0.7613473715179281  0.006403217419811844  1.0000
  I   I4        1.0  0.4649592352785815  0.23865262863730635  0.993596782819722  1.0000
  I   I5        1.0  0.1575703629147226  0.7561224164603317  0.9991889689607159  1.0000
  I   I6        1.0  0.8424296370070832  0.24387758369490276  0.0008110312788178937  1.0000
  I   I7        1.0  0.30801122273388776  0.5241948679386531  0.018094145272830566  1.0000
  I   I8        1.0  0.6919887771879181  0.4758051322165815  0.9819058549667031  1.0000
  I   I9        1.0  0.5006513945553528  0.07962976192137336  0.6499508902229166  1.0000
  I   I10       1.0  0.49934860546228915  0.9203702385142604  0.35004910912666437  1.0000
  I   I11       1.0  0.5874561199535296  0.25011790042706455  0.3362882865634215  1.0000
  I   I12       1.0  0.41254388012216425  0.7498820988245916  0.6637117136664841  1.0000
