data_image0
_chemical_formula_structural       H60C56N12O24P8
_chemical_formula_sum              "H60 C56 N12 O24 P8"
_cell_length_a       9.378069822355751
_cell_length_b       10.25374381774584
_cell_length_c       17.96394524706368
_cell_angle_alpha    77.33886576993801
_cell_angle_beta     78.09578807020328
_cell_angle_gamma    71.52614712995555

_space_group_name_H-M_alt    "P 1"
_space_group_IT_number       1

loop_
  _space_group_symop_operation_xyz
  'x, y, z'

loop_
  _atom_site_type_symbol
  _atom_site_label
  _atom_site_symmetry_multiplicity
  _atom_site_fract_x
  _atom_site_fract_y
  _atom_site_fract_z
  _atom_site_occupancy
  H   H1        1.0  0.5045493805433109  0.11192343119681304  0.9687945199391716  1.0000
  H   H2        1.0  0.4954506187123988  0.8880765688420543  0.031205480100759887  1.0000
  H   H3        1.0  0.8992920148748511  0.3793191826435585  0.15726556277147857  1.0000
  H   H4        1.0  0.10070798544904495  0.6206808173909314  0.8427344372675302  1.0000
  H   H5        1.0  0.36169469502090534  0.20577080147639415  0.20430137231494866  1.0000
  H   H6        1.0  0.6383053053029907  0.7942291985580961  0.79569862772406  1.0000
  H   H7        1.0  0.06451355506973272  0.3713815818406006  0.9127944913603698  1.0000
  H   H8        1.0  0.935486444185977  0.6286184181982667  0.08720550867956166  1.0000
  H   H9        1.0  0.9848079361211121  0.34713256873259474  0.02317507396625446  1.0000
  H   H10       1.0  0.015192063134597587  0.6528674313062726  0.976824926073677  1.0000
  H   H11       1.0  0.14746964229328144  0.3414926356429369  0.7786553936367102  1.0000
  H   H12       1.0  0.8525303580306145  0.6585073643915531  0.22134460640229842  1.0000
  H   H13       1.0  0.44867792691716574  0.18130948811392095  0.06920687251014124  1.0000
  H   H14       1.0  0.5513220734067303  0.818690511920569  0.9307931275288677  1.0000
  H   H15       1.0  0.5864062615912572  0.08062174452276141  0.8343778392978572  1.0000
  H   H16       1.0  0.4135937376644527  0.919378255516106  0.16562216074207423  1.0000
  H   H17       1.0  0.8062693109595227  0.39182442257541666  0.30915047589030786  1.0000
  H   H18       1.0  0.1937306893643735  0.6081755774590734  0.6908495241487009  1.0000
  H   H19       1.0  0.6805603584160509  0.09854006925813094  0.6884152597549347  1.0000
  H   H20       1.0  0.3194396408396587  0.9014599307807364  0.3115847402849969  1.0000
  H   H21       1.0  0.35843982550970566  0.5023601795338103  0.9900462567592911  1.0000
  H   H22       1.0  0.6415601748141905  0.49763982050067973  0.009953743279717701  1.0000
  H   H23       1.0  0.1782037734860145  0.597298736578578  0.2221442230099459  1.0000
  H   H24       1.0  0.8217962268378816  0.4027012634559122  0.7778557770290627  1.0000
  H   H25       1.0  0.452817324115495  0.4498264941116702  0.8595076387639998  1.0000
  H   H26       1.0  0.5471826751402145  0.5501735059271972  0.14049236127593162  1.0000
  H   H27       1.0  0.3223563823534725  0.8895977432506463  0.7671459878048468  1.0000
  H   H28       1.0  0.6776436179704235  0.11040225678384386  0.23285401223416186  1.0000
  H   H29       1.0  0.17234139988248887  0.9855735192043736  0.0007273519795094894  1.0000
  H   H30       1.0  0.8276585993732208  0.014426480834493596  0.9992726480604219  1.0000
  H   H31       1.0  0.22584386081325666  0.9432609423518709  0.896392045167191  1.0000
  H   H32       1.0  0.774156138442453  0.056739057686996365  0.10360795487274067  1.0000
  H   H33       1.0  0.07840833296244547  0.03761950987231421  0.13125939647181764  1.0000
  H   H34       1.0  0.9215916673614507  0.9623804901621759  0.8687406035671911  1.0000
  H   H35       1.0  0.2683434589239437  0.5437910124016125  0.09226573386041961  1.0000
  H   H36       1.0  0.7316565413999522  0.45620898763287754  0.9077342661785891  1.0000
  H   H37       1.0  0.6768630482984123  0.6970537055504231  0.6734060292897486  1.0000
  H   H38       1.0  0.32313695130752945  0.30294629345902097  0.32659397075425206  1.0000
  H   H39       1.0  0.8486624044945349  0.7884885548636451  0.3256316977018693  1.0000
  H   H40       1.0  0.15133759582936113  0.21151144517084508  0.6743683023371394  1.0000
  H   H41       1.0  0.9834169018295215  0.08152653450259173  0.299143102156222  1.0000
  H   H42       1.0  0.01658309849437456  0.9184734655318983  0.7008568978827867  1.0000
  H   H43       1.0  0.5225638740959516  0.4118428035322915  0.6886879919794325  1.0000
  H   H44       1.0  0.47743612550999015  0.5881571954771525  0.3113120080645682  1.0000
  H   H45       1.0  0.11768135804315152  0.5138352261200241  0.40084161370239585  1.0000
  H   H46       1.0  0.8823186422807445  0.4861647739144661  0.5991583863366129  1.0000
  H   H47       1.0  0.34343692011130494  0.6727376978982851  0.5261028297039982  1.0000
  H   H48       1.0  0.656563080212591  0.32726230213620494  0.47389717033501055  1.0000
  H   H49       1.0  0.20187769006286022  0.7287220478009294  0.4041958210579132  1.0000
  H   H50       1.0  0.798122310261036  0.2712779522335606  0.5958041789810955  1.0000
  H   H51       1.0  0.35385655586641646  0.41597619231339505  0.5870919803357064  1.0000
  H   H52       1.0  0.6461434433892931  0.5840238077254724  0.41290801970422514  1.0000
  H   H53       1.0  0.7695933713516846  0.7603169969798816  0.5354574006686875  1.0000
  H   H54       1.0  0.23040662897221148  0.23968300305460838  0.4645425993703212  1.0000
  H   H55       1.0  0.7113997454581361  0.16231814977870399  0.3999522624355045  1.0000
  H   H56       1.0  0.28860025486575996  0.837681850255786  0.6000477376035042  1.0000
  H   H57       1.0  0.870955458312452  0.9127453778206113  0.5986574191557381  1.0000
  H   H58       1.0  0.12904454094325774  0.08725462221825594  0.40134258088419333  1.0000
  H   H59       1.0  0.6841533750160474  0.9131975456317637  0.4078236306828932  1.0000
  H   H60       1.0  0.31584662530784846  0.08680245440272642  0.5921763693561155  1.0000
  C   C1        1.0  0.37279276284753055  0.2070978630067878  0.7965089087097489  1.0000
  C   C2        1.0  0.6272072374763654  0.7929021370277023  0.20349109132925988  1.0000
  C   C3        1.0  0.12382982927951251  0.2956734449902521  0.19097805383811922  1.0000
  C   C4        1.0  0.8761701710443834  0.704326555044238  0.8090219462008895  1.0000
  C   C5        1.0  0.4240695211727821  0.16235964860826674  0.9281272340833687  1.0000
  C   C6        1.0  0.5759304780829276  0.8376403514306004  0.07187276595656279  1.0000
  C   C7        1.0  0.020082817086985828  0.3352027265610613  0.13835430785719313  1.0000
  C   C8        1.0  0.9799171832369102  0.6647972734734288  0.8616456921818156  1.0000
  C   C9        1.0  0.27629709675904696  0.24293968778535405  0.9528554395805601  1.0000
  C   C10       1.0  0.723702903564849  0.7570603122491362  0.04714456045844848  1.0000
  C   C11       1.0  0.278451811741399  0.23880219095251096  0.1646486432671779  1.0000
  C   C12       1.0  0.7215481885824971  0.7611978090819792  0.8353513567718307  1.0000
  C   C13       1.0  0.22442146012010936  0.26199011218602153  0.03431377558987419  1.0000
  C   C14       1.0  0.7755785402037868  0.7380098878484687  0.9656862244491345  1.0000
  C   C15       1.0  0.1787252036284956  0.3056106401547624  0.8969889030541912  1.0000
  C   C16       1.0  0.8212747966954005  0.6943893598797277  0.10301109698481756  1.0000
  C   C17       1.0  0.06958560043153719  0.3181020896297736  0.06162070630499339  1.0000
  C   C18       1.0  0.9304143988241724  0.6818979104090938  0.9383792937349381  1.0000
  C   C19       1.0  0.22550899513137876  0.2884658671053249  0.8202840308605823  1.0000
  C   C20       1.0  0.7744910041243308  0.7115341329335424  0.17971596917934915  1.0000
  C   C21       1.0  0.3275009999521781  0.22352613281849618  0.08764125138198556  1.0000
  C   C22       1.0  0.672499000371718  0.7764738672159939  0.9123587486570233  1.0000
  C   C23       1.0  0.4716173364319402  0.14450229711591314  0.8513822613423253  1.0000
  C   C24       1.0  0.5283826628237693  0.8554977029229542  0.14861773869760614  1.0000
  C   C25       1.0  0.39638987705506307  0.6653234317242958  0.8040474790724037  1.0000
  C   C26       1.0  0.603610123268833  0.3346765683101944  0.19595252096660498  1.0000
  C   C27       1.0  0.12159294653557766  0.821623217860956  0.18597319544608248  1.0000
  C   C28       1.0  0.8784070537883183  0.17837678217353398  0.8140268045929262  1.0000
  C   C29       1.0  0.3494357862279011  0.5890106579533739  0.9421045330742125  1.0000
  C   C30       1.0  0.6505642140959949  0.41098934208111626  0.05789546696479641  1.0000
  C   C31       1.0  0.17632755076229484  0.6826819264294901  0.17358351588206905  1.0000
  C   C32       1.0  0.8236724484934147  0.3173180736093771  0.8264164841578625  1.0000
  C   C33       1.0  0.28504160326913075  0.7276432559209285  0.9552645265896077  1.0000
  C   C34       1.0  0.7149583959865788  0.27235674411793875  0.0447354734503239  1.0000
  C   C35       1.0  0.4036893392438589  0.5580403138845136  0.8678989619855751  1.0000
  C   C36       1.0  0.596310661248873  0.4419596863155407  0.13210103747656424  1.0000
  C   C37       1.0  0.3314776827186469  0.8042484644334319  0.8159284535826263  1.0000
  C   C38       1.0  0.6685223176052489  0.19575153560105804  0.18407154645638235  1.0000
  C   C39       1.0  0.2287292379376814  0.7599262779951257  0.03449553710493353  1.0000
  C   C40       1.0  0.7712707613180283  0.24007372204374167  0.9655044629349979  1.0000
  C   C41       1.0  0.17408126266146326  0.8986482042728573  0.048226014911224656  1.0000
  C   C42       1.0  0.8259187376624328  0.10135179576163283  0.9517739851277841  1.0000
  C   C43       1.0  0.27649467947054  0.8342092947368142  0.8901100734898877  1.0000
  C   C44       1.0  0.7235053208533561  0.16579070529767603  0.10988992654912111  1.0000
  C   C45       1.0  0.1211924229496954  0.9292612869924934  0.12252636872824521  1.0000
  C   C46       1.0  0.8788075773742007  0.07073871304199658  0.8774736313107636  1.0000
  C   C47       1.0  0.22822387782926357  0.6530582334711541  0.09914532126286962  1.0000
  C   C48       1.0  0.771776121776678  0.34694176553828987  0.900854678781131  1.0000
  C   C49       1.0  0.17704865146161647  0.5224088489691103  0.4447198068523767  1.0000
  C   C50       1.0  0.8229513488622794  0.4775911510653797  0.555280193186632  1.0000
  C   C51       1.0  0.294387508231714  0.6063024663442612  0.5067606883083849  1.0000
  C   C52       1.0  0.7056124920921819  0.3936975336902289  0.4932393117306238  1.0000
  C   C53       1.0  0.76809996862522  0.8682811425127464  0.5158214808044358  1.0000
  C   C54       1.0  0.2319000306304896  0.13171885752612106  0.4841785192354957  1.0000
  C   C55       1.0  0.7389636392015326  0.0750729844673399  0.44686872102071784  1.0000
  C   C56       1.0  0.2610363614725955  0.9249270145377269  0.55313127902236  1.0000
  N   N1        1.0  0.21748320734745882  0.6378240569556197  0.4469853362994872  1.0000
  N   N2        1.0  0.7825167929764373  0.36217594307887024  0.5530146637395216  1.0000
  N   N3        1.0  0.2982633484392602  0.47618274386881765  0.539341469700504  1.0000
  N   N4        1.0  0.7017366524037039  0.5238172553018132  0.4606585297657045  1.0000
  N   N5        1.0  0.2253213807472235  0.42131559760518256  0.5013630324772613  1.0000
  N   N6        1.0  0.7746786197455084  0.5786844025948717  0.498636966984878  1.0000
  N   N7        1.0  0.7171845822771518  0.9479361352266819  0.4512922265811332  1.0000
  N   N8        1.0  0.2828154180467442  0.05206386480780834  0.5487077734578755  1.0000
  N   N9        1.0  0.8166241631598199  0.9467232926424652  0.5485893041933402  1.0000
  N   N10       1.0  0.18337583716407588  0.053276707392025155  0.4514106958456685  1.0000
  N   N11       1.0  0.799766471243776  0.07697954694736854  0.5066198072277036  1.0000
  N   N12       1.0  0.20023352836216562  0.9230204520620755  0.49338019281629697  1.0000
  O   O1        1.0  0.03348701967629596  0.16683585897445474  0.332841077248369  1.0000
  O   O2        1.0  0.9665129806476003  0.8331641410600353  0.6671589227906398  1.0000
  O   O3        1.0  0.46161237389212445  0.32819516778029406  0.6511777093986634  1.0000
  O   O4        1.0  0.5383876253635852  0.6718048322585731  0.3488222906412682  1.0000
  O   O5        1.0  0.5855895862111864  0.06675266546221854  0.6926227795142506  1.0000
  O   O6        1.0  0.4144104130445232  0.9332473345766488  0.307377220525681  1.0000
  O   O7        1.0  0.9028507859819814  0.42629368793039113  0.2950675082558667  1.0000
  O   O8        1.0  0.0971492132737281  0.5737063121084762  0.7049324917840648  1.0000
  O   O9        1.0  0.31625125325029857  0.14923446980884975  0.666518697641802  1.0000
  O   O10       1.0  0.6837487470735975  0.8507655302256404  0.3334813023972066  1.0000
  O   O11       1.0  0.16836164288182986  0.35139100182171945  0.32533858886085054  1.0000
  O   O12       1.0  0.8316383574420663  0.6486089982127706  0.6746614111781581  1.0000
  O   O13       1.0  0.32932311917153806  0.6579352612258449  0.6641025693720257  1.0000
  O   O14       1.0  0.6706768811523579  0.3420647388086451  0.335897430666983  1.0000
  O   O15       1.0  0.965745688032358  0.753771371081761  0.3262814397307972  1.0000
  O   O16       1.0  0.03425431246037395  0.24622862911829319  0.6737185597313421  1.0000
  O   O17       1.0  0.5622570993409128  0.47382937942774983  0.7135846947181973  1.0000
  O   O18       1.0  0.4377429009829831  0.5261706206067404  0.2864153053208114  1.0000
  O   O19       1.0  0.9491597581953714  0.011275196043899018  0.27508141270666203  1.0000
  O   O20       1.0  0.050840242297360595  0.9887248041561554  0.7249185867554773  1.0000
  O   O21       1.0  0.18821153538084312  0.8380233082290306  0.3250484152141381  1.0000
  O   O22       1.0  0.8117884649430529  0.1619766918054596  0.6749515848248706  1.0000
  O   O23       1.0  0.5598680545270521  0.7291554344450573  0.6653952345298982  1.0000
  O   O24       1.0  0.4401319447286574  0.27084456559381  0.33460476551003326  1.0000
  P   P1        1.0  0.058162970819859466  0.3082977329498885  0.29148279549607864  1.0000
  P   P2        1.0  0.9418370298542684  0.6917022660551783  0.7085172045469993  1.0000
  P   P3        1.0  0.4342830148886139  0.19027650044164665  0.6963508714641575  1.0000
  P   P4        1.0  0.5657169854352821  0.8097234995928435  0.30364912857485116  1.0000
  P   P5        1.0  0.05665998060840147  0.8594933817783258  0.2821595594697445  1.0000
  P   P6        1.0  0.9433400197154945  0.14050661825616445  0.7178404405692641  1.0000
  P   P7        1.0  0.4616167349625565  0.6295791240887595  0.7072477462903803  1.0000
  P   P8        1.0  0.5383832653613395  0.3704208759457306  0.29275225374862834  1.0000
