data_image0
_chemical_formula_structural       H52C39N2O12Cl2
_chemical_formula_sum              "H52 C39 N2 O12 Cl2"
_cell_length_a       8.65177789791668
_cell_length_b       10.79546650293643
_cell_length_c       11.735655110646546
_cell_angle_alpha    111.0602156000265
_cell_angle_beta     92.32921114633348
_cell_angle_gamma    108.33641707125184

_space_group_name_H-M_alt    "P 1"
_space_group_IT_number       1

loop_
  _space_group_symop_operation_xyz
  'x, y, z'

loop_
  _atom_site_type_symbol
  _atom_site_label
  _atom_site_symmetry_multiplicity
  _atom_site_fract_x
  _atom_site_fract_y
  _atom_site_fract_z
  _atom_site_occupancy
  H   H1        1.0  0.17109981268048213  0.6417063243887198  0.14923867596626722  1.0000
  H   H2        1.0  0.06627764895398157  0.3846168605450741  0.07555900900286444  1.0000
  H   H3        1.0  0.9227127018045308  0.23609084711704068  0.8563455399445915  1.0000
  H   H4        1.0  0.9116814159149943  0.3467698111695065  0.7085490256297751  1.0000
  H   H5        1.0  0.07505728579851594  0.7884477643158475  0.6143307237570675  1.0000
  H   H6        1.0  0.11204918588777384  0.03808427231029537  0.6922265031538206  1.0000
  H   H7        1.0  0.1660093825020996  0.18245286431911814  0.9222171499064618  1.0000
  H   H8        1.0  0.18467310551873412  0.07255350635905973  0.0675343994652733  1.0000
  H   H9        1.0  0.8912425954517854  0.45164625775834133  0.5937336435532446  1.0000
  H   H10       1.0  0.009036795719975772  0.5962441207848012  0.5606590265430277  1.0000
  H   H11       1.0  0.10470029343575238  0.36425141822191137  0.5956135022042449  1.0000
  H   H12       1.0  0.12488254720277954  0.4180756361582948  0.470727741893084  1.0000
  H   H13       1.0  0.3493415673022251  0.6490936124412111  0.607380780979935  1.0000
  H   H14       1.0  0.31496247627610086  0.6058889171805028  0.7361205108291191  1.0000
  H   H15       1.0  0.14553892957624928  0.9618196067221358  0.18284445103172178  1.0000
  H   H16       1.0  0.19845536953936288  0.8285679676186555  0.20547347710081504  1.0000
  H   H17       1.0  0.41058688749785555  0.08148276712518805  0.15786579100532314  1.0000
  H   H18       1.0  0.449420115904137  0.02704499772210923  0.27720928587510507  1.0000
  H   H19       1.0  0.49651696501379466  0.8153458058653807  0.12326294970093617  1.0000
  H   H20       1.0  0.4366262174346857  0.8563930074479884  0.0012712999081023184  1.0000
  H   H21       1.0  0.6721750978590818  0.19678402624955374  0.2061497929462847  1.0000
  H   H22       1.0  0.8512541366035449  0.18256728321432258  0.14317506856711407  1.0000
  H   H23       1.0  0.511071442749125  0.1146913740893079  0.9955559973724765  1.0000
  H   H24       1.0  0.6890477850033954  0.27036789044022075  0.03337433410019149  1.0000
  H   H25       1.0  0.474467118684102  0.0020167066911255865  0.7967380456624287  1.0000
  H   H26       1.0  0.6226349951928577  0.14694441155277704  0.7746146204271381  1.0000
  H   H27       1.0  0.5878490913551884  0.9288195191286998  0.5995594841408792  1.0000
  H   H28       1.0  0.7883558333168431  0.989097117553252  0.6866889255658446  1.0000
  H   H29       1.0  0.5830106192583568  0.6873281125850325  0.5201638603537566  1.0000
  H   H30       1.0  0.7848104859122268  0.74656275093906  0.6069605130735859  1.0000
  H   H31       1.0  0.6748097204322424  0.511527639270427  0.5878190006174301  1.0000
  H   H32       1.0  0.6534698381074229  0.6110564532097521  0.7401216895412357  1.0000
  H   H33       1.0  0.2870970796902842  0.27721884713199124  0.5228810999512505  1.0000
  H   H34       1.0  0.501381951451079  0.31361431354526015  0.5583599053335886  1.0000
  H   H35       1.0  0.26326384607859094  0.342604886493759  0.7455069953685406  1.0000
  H   H36       1.0  0.34589708549462417  0.20350287620163238  0.6859896211915837  1.0000
  H   H37       1.0  0.3688925060779664  0.45594351322442533  0.9362872203417424  1.0000
  H   H38       1.0  0.4552280105404653  0.32927017747749937  0.9454087974009813  1.0000
  H   H39       1.0  0.5976954183427875  0.5527764020776305  0.1128118958912  1.0000
  H   H40       1.0  0.7391669242147592  0.5198604051227912  0.00821391743781423  1.0000
  H   H41       1.0  0.7358703721104435  0.8068246144038452  0.18998689533666616  1.0000
  H   H42       1.0  0.8851650814512572  0.7729880352220747  0.09486646167167642  1.0000
  H   H43       1.0  0.9106731443172906  0.0016868161704083734  0.11407143022129058  1.0000
  H   H44       1.0  0.7810885766287916  0.8924395021955912  0.9678982056681942  1.0000
  H   H45       1.0  0.8498277546402526  0.81362182816372  0.3942267308337615  1.0000
  H   H46       1.0  0.09707765233481  0.02900416366451856  0.4713859399543226  1.0000
  H   H47       1.0  0.38091321704978254  0.012511169011109567  0.48431095852313516  1.0000
  H   H48       1.0  0.4067448877465446  0.7747858336845811  0.4167163363579255  1.0000
  H   H49       1.0  0.15734342687907746  0.5576455830278276  0.3396230074323311  1.0000
  H   H50       1.0  0.790122759248363  0.5068422281361037  0.39336336866420696  1.0000
  H   H51       1.0  0.7307547115409374  0.5467288209597182  0.269488770184353  1.0000
  H   H52       1.0  0.8631260668755226  0.44586119839854405  0.25320546769761204  1.0000
  C   C1        1.0  0.1568370571665145  0.8000148439078936  0.014319429248875182  1.0000
  C   C2        1.0  0.10899515867130814  0.6496528908270303  0.97045420847092  1.0000
  C   C3        1.0  0.11788324033416334  0.5802569380152846  0.0517232614689943  1.0000
  C   C4        1.0  0.05594642194624919  0.4340132105531932  0.010674579749590477  1.0000
  C   C5        1.0  0.9789108658842925  0.35065983591338884  0.8865117125868217  1.0000
  C   C6        1.0  0.9736527274221253  0.4139344016698875  0.8034331471663011  1.0000
  C   C7        1.0  0.04440872786660241  0.5629592714777615  0.8407297251410727  1.0000
  C   C8        1.0  0.05447922137396465  0.6265108330377674  0.75203161242053  1.0000
  C   C9        1.0  0.09882988083631111  0.7767285986889046  0.7959475895347461  1.0000
  C   C10       1.0  0.09732919420220235  0.8468670652420721  0.7141890709125835  1.0000
  C   C11       1.0  0.11995576429669814  0.9898206028765816  0.7582718912696969  1.0000
  C   C12       1.0  0.14988252342449568  0.07037490215692584  0.8864415883910244  1.0000
  C   C13       1.0  0.16109938438039856  0.007614496247021248  0.9689551416176249  1.0000
  C   C14       1.0  0.13885868232953807  0.8617582169377696  0.9275946953509228  1.0000
  C   C15       1.0  0.014227366744935195  0.5343799295668358  0.6157931931141535  1.0000
  C   C16       1.0  0.13767920214164125  0.457671933005229  0.5721177087483634  1.0000
  C   C17       1.0  0.21785840532991077  0.892370848660305  0.14963721170372427  1.0000
  C   C18       1.0  0.401184312201454  0.9882660663352826  0.17807304436515098  1.0000
  C   C19       1.0  0.5006700425170957  0.9067778180504649  0.1009885837743389  1.0000
  C   C20       1.0  0.7157352371133886  0.13683646856577664  0.12522678314877275  1.0000
  C   C21       1.0  0.6474016894501743  0.15523621113343175  0.011961519050573079  1.0000
  C   C22       1.0  0.6061640959360529  0.05005425718201296  0.7923319931461715  1.0000
  C   C23       1.0  0.6552032554860655  0.9467012825820289  0.6891081448682365  1.0000
  C   C24       1.0  0.6514833283516489  0.710918249739485  0.6114240800046272  1.0000
  C   C25       1.0  0.6087225140400332  0.5790971713385389  0.6399490400167913  1.0000
  C   C26       1.0  0.3130348009425835  0.5569477849581351  0.6333357980602901  1.0000
  C   C27       1.0  0.3983729795625821  0.3455475435310652  0.5930601348109111  1.0000
  C   C28       1.0  0.37180350768671366  0.31812583303384373  0.711600058299367  1.0000
  C   C29       1.0  0.4799499595360001  0.42571398284346457  0.9260832098976757  1.0000
  C   C30       1.0  0.623921263524789  0.5435425115895689  0.019363856421937452  1.0000
  C   C31       1.0  0.7664861776194464  0.7908915192070393  0.0964323860067177  1.0000
  C   C32       1.0  0.7874133824621131  0.921867915953731  0.06947004843564648  1.0000
  C   C33       1.0  0.9714621528584627  0.8038050707411748  0.40019500480578735  1.0000
  C   C34       1.0  0.11274736001202036  0.9266091477096997  0.4442055548459538  1.0000
  C   C35       1.0  0.2700442353174813  0.9174502069797085  0.45215723217290654  1.0000
  C   C36       1.0  0.28482408407515547  0.7838123677542141  0.41462402755718397  1.0000
  C   C37       1.0  0.14372347702087332  0.6611597200515523  0.3706395194109884  1.0000
  C   C38       1.0  0.9849134769032618  0.6690900376678043  0.362785760624324  1.0000
  C   C39       1.0  0.8346834090197848  0.5358605711346344  0.3166159161740061  1.0000
  N   N1        1.0  0.6690618833731731  0.9903777027434196  0.11093084247953021  1.0000
  N   N2        1.0  0.43523480722950153  0.49178647631979155  0.6100765458488729  1.0000
  O   O1        1.0  0.7062452321821926  0.08256706355020726  0.9066960288162091  1.0000
  O   O2        1.0  0.6158685896149766  0.8176664987799395  0.7081707435945331  1.0000
  O   O3        1.0  0.5150600032580056  0.401283670305762  0.8036331908829432  1.0000
  O   O4        1.0  0.6422048768036172  0.671985972128547  0.0031603374370782586  1.0000
  O   O5        1.0  0.3622092985011521  0.27787863011059427  0.32709347169661773  1.0000
  O   O6        1.0  0.40996560147786093  0.5070277703738308  0.32344811311572785  1.0000
  O   O7        1.0  0.1611541634189173  0.31275281352683043  0.20889795154836602  1.0000
  O   O8        1.0  0.42039163239575206  0.31672275646054193  0.1434883695049456  1.0000
  O   O9        1.0  0.9132340169065307  0.13089132691544378  0.5543763279821423  1.0000
  O   O10       1.0  0.6793064025887968  0.9671168391649141  0.3969007404163338  1.0000
  O   O11       1.0  0.8275380074988116  0.19324553760683172  0.39282725282738806  1.0000
  O   O12       1.0  0.6630678942423575  0.1789235147439518  0.5496243848793098  1.0000
  Cl  Cl1       1.0  0.3390988415468301  0.3542546977400569  0.2514926667735538  1.0000
  Cl  Cl2       1.0  0.7707222429802425  0.11714731153184116  0.4722377284715404  1.0000
