data_image0
_chemical_formula_structural       H14C34O8
_chemical_formula_sum              "H14 C34 O8"
_cell_length_a       7.652545538806259
_cell_length_b       8.12770112294446
_cell_length_c       10.101323673608539
_cell_angle_alpha    107.94177046803186
_cell_angle_beta     95.80795610095548
_cell_angle_gamma    110.41828172462046

_space_group_name_H-M_alt    "P 1"
_space_group_IT_number       1

loop_
  _space_group_symop_operation_xyz
  'x, y, z'

loop_
  _atom_site_type_symbol
  _atom_site_label
  _atom_site_symmetry_multiplicity
  _atom_site_fract_x
  _atom_site_fract_y
  _atom_site_fract_z
  _atom_site_occupancy
  H   H1        1.0  0.5509423778100312  0.5825184979117088  0.14471886151661156  1.0000
  H   H2        1.0  0.4490579016550055  0.41748233681333363  0.8552839658011299  1.0000
  H   H3        1.0  0.6096746077993305  0.779272745018531  0.4027415921527232  1.0000
  H   H4        1.0  0.39032655370613106  0.22072778599924078  0.597261773016188  1.0000
  H   H5        1.0  0.8569603210666729  0.1055500557583187  0.5076625716206072  1.0000
  H   H6        1.0  0.1430371729302263  0.8944489027182273  0.49233949397194166  1.0000
  H   H7        1.0  0.696553593215347  0.4988287661127654  0.6874122074591663  1.0000
  H   H8        1.0  0.30344744284101993  0.5011715791830635  0.3125913112037332  1.0000
  H   H9        1.0  0.8773555736584292  0.6220085584301601  0.5288618677186624  1.0000
  H   H10       1.0  0.12264479933581653  0.3779923481597767  0.4711416998662869  1.0000
  H   H11       1.0  0.7834986978452245  0.45089441151550286  0.28045401947811766  1.0000
  H   H12       1.0  0.21650156540469562  0.549104898184284  0.719546064676884  1.0000
  H   H13       1.0  0.8807994339314582  0.44550466211454626  0.05451099868787383  1.0000
  H   H14       1.0  0.11920078894072907  0.5544944766681391  0.9454891078342498  1.0000
  C   C1        1.0  0.9789660815885807  0.9409186997772077  0.9266011493163222  1.0000
  C   C2        1.0  0.02103414991044732  0.059083378823823175  0.07340282402995303  1.0000
  C   C3        1.0  0.7724360042831373  0.7980679159048919  0.10553281820166048  1.0000
  C   C4        1.0  0.22756393858592056  0.201933067051766  0.8944699527148999  1.0000
  C   C5        1.0  0.9144209356838894  0.9850970124309634  0.16318620384662347  1.0000
  C   C6        1.0  0.08557942872038146  0.014903321416461524  0.8368168054350255  1.0000
  C   C7        1.0  0.9479299975324166  0.09918803077535673  0.30999737694931806  1.0000
  C   C8        1.0  0.05207088877825806  0.9008106085019835  0.6900044496825232  1.0000
  C   C9        1.0  0.840226540624558  0.7577683333738812  0.8738889597434216  1.0000
  C   C10       1.0  0.1597732644612615  0.24223305710043247  0.12611364164557703  1.0000
  C   C11       1.0  0.6630281928242604  0.7246054198217609  0.19064571964730487  1.0000
  C   C12       1.0  0.3369733914254392  0.2753952408162139  0.8093573106900364  1.0000
  C   C13       1.0  0.6966602505245987  0.8377429517040811  0.33615829336359204  1.0000
  C   C14       1.0  0.30334018124218437  0.16225723036844944  0.663844603838084  1.0000
  C   C15       1.0  0.8348861732458958  0.020693726277487497  0.39553395834549143  1.0000
  C   C16       1.0  0.16511457416663677  0.9793061322633378  0.6044685564580907  1.0000
  C   C17       1.0  0.8042389767456753  0.6428787441521485  0.7294112541812624  1.0000
  C   C18       1.0  0.1957593929937279  0.35712217068247337  0.2705918046891924  1.0000
  C   C19       1.0  0.9083994244334244  0.713787350709632  0.640377840704855  1.0000
  C   C20       1.0  0.09160011070510295  0.2862123586901414  0.35962580734328886  1.0000
  C   C21       1.0  0.5279957740457344  0.9981441898453361  0.9346989124127761  1.0000
  C   C22       1.0  0.4720040753168571  0.0018551942887827784  0.06530115979480643  1.0000
  C   C23       1.0  0.6757491842106981  0.1606325935226475  0.9319851231747838  1.0000
  C   C24       1.0  0.32425067291198983  0.8393667850826474  0.06801491746408944  1.0000
  C   C25       1.0  0.5656866174202329  0.16724353390684965  0.1896563258068528  1.0000
  C   C26       1.0  0.43431330570451787  0.8327558786412839  0.8103437912151414  1.0000
  C   C27       1.0  0.734210323559261  0.15653696327832248  0.7970230655142164  1.0000
  C   C28       1.0  0.26578940536625106  0.8434623906360499  0.20297703848048698  1.0000
  C   C29       1.0  0.7113702716053895  0.32458690729308015  0.18439632287741128  1.0000
  C   C30       1.0  0.2886298502285808  0.6754124017177948  0.8156037941749285  1.0000
  C   C31       1.0  0.7661455984902206  0.3212090412842234  0.05584525526764708  1.0000
  C   C32       1.0  0.23385447812891458  0.6787901858197032  0.9441548211978279  1.0000
  C   C33       1.0  0.4907045932280372  0.8287496231553511  0.6752446281958017  1.0000
  C   C34       1.0  0.5092951167993763  0.17124989865377777  0.32475543284425973  1.0000
  O   O1        1.0  0.7380182735462446  0.6842153696689186  0.9626998980525868  1.0000
  O   O2        1.0  0.26198031587433235  0.3157854056508567  0.03730236903768538  1.0000
  O   O3        1.0  0.6398996683200875  0.9903330423908134  0.6778021086829388  1.0000
  O   O4        1.0  0.3601000728922524  0.009666516322936207  0.32219791527481906  1.0000
  O   O5        1.0  0.8591497911423918  0.2856075388744346  0.7805212345697485  1.0000
  O   O6        1.0  0.14085021880063803  0.7143921097702831  0.21947882424952156  1.0000
  O   O7        1.0  0.4202901673223679  0.696239424233433  0.5615683625824326  1.0000
  O   O8        1.0  0.5797094933484949  0.3037602325304535  0.43843179858215553  1.0000
