data_image0
_chemical_formula_structural       H32C40N4O4F12I6
_chemical_formula_sum              "H32 C40 N4 O4 F12 I6"
_cell_length_a       10.409350148589592
_cell_length_b       11.81672443395621
_cell_length_c       12.299723900832907
_cell_angle_alpha    108.83598200854021
_cell_angle_beta     103.17049773416392
_cell_angle_gamma    111.66756781693563

_space_group_name_H-M_alt    "P 1"
_space_group_IT_number       1

loop_
  _space_group_symop_operation_xyz
  'x, y, z'

loop_
  _atom_site_type_symbol
  _atom_site_label
  _atom_site_symmetry_multiplicity
  _atom_site_fract_x
  _atom_site_fract_y
  _atom_site_fract_z
  _atom_site_occupancy
  H   H1        1.0  0.9715351187023004  0.32688604170894436  0.5220815987645457  1.0000
  H   H2        1.0  0.028464881260432694  0.6731139582310306  0.4779184014439364  1.0000
  H   H3        1.0  0.6259051773607855  0.16351045604880343  0.5974087060937082  1.0000
  H   H4        1.0  0.37409482260194743  0.8364895438911715  0.40259129411477385  1.0000
  H   H5        1.0  0.5131362402683882  0.09110488178613946  0.4333980463602523  1.0000
  H   H6        1.0  0.48686375969434487  0.9088951181538355  0.5666019538482298  1.0000
  H   H7        1.0  0.556281302532524  0.25587194396926555  0.5342828304168662  1.0000
  H   H8        1.0  0.44371869743020914  0.7441280559707095  0.4657171697916159  1.0000
  H   H9        1.0  0.9583045481194965  0.4469848863855289  0.2881372441432618  1.0000
  H   H10       1.0  0.04169545184323652  0.5530151135544461  0.7118627560652202  1.0000
  H   H11       1.0  0.7729319861633644  0.3079959865037216  0.19154553659116183  1.0000
  H   H12       1.0  0.22706801379936875  0.6920040134362534  0.8084544636173202  1.0000
  H   H13       1.0  0.9349051733351995  0.2815590476289934  0.21518363510336755  1.0000
  H   H14       1.0  0.06509482662753348  0.7184409523109815  0.7848163651051144  1.0000
  H   H15       1.0  0.5332664978327817  0.5147437049672914  0.36513216156830913  1.0000
  H   H16       1.0  0.46673350168618816  0.48525629451300045  0.6348678377052911  1.0000
  H   H17       1.0  0.7148593040787743  0.5262111756948993  0.40396348969848184  1.0000
  H   H18       1.0  0.2851406958839587  0.4737888242450757  0.5960365105100002  1.0000
  H   H19       1.0  0.6052960361235291  0.475969719500951  0.4863259455173103  1.0000
  H   H20       1.0  0.3947039642213743  0.5240302813490509  0.5136740546900067  1.0000
  H   H21       1.0  0.4049073303323454  0.9023331347897722  0.16007752059116878  1.0000
  H   H22       1.0  0.5950926696303878  0.09766686515020291  0.8399224796173131  1.0000
  H   H23       1.0  0.6002614292379617  0.9935026351132393  0.1980404673897217  1.0000
  H   H24       1.0  0.3997385707247713  0.006497364826735441  0.8019595328187602  1.0000
  H   H25       1.0  0.46749399922159257  0.9329071265663277  0.04565980354799591  1.0000
  H   H26       1.0  0.5325060007411405  0.06709287337364726  0.9543401966604861  1.0000
  H   H27       1.0  0.25260264751337813  0.9480148311570004  0.9734111682097977  1.0000
  H   H28       1.0  0.747397352449355  0.05198516878297461  0.02658883199868438  1.0000
  H   H29       1.0  0.2225779321644324  0.08509469382587087  0.9659057814342127  1.0000
  H   H30       1.0  0.7774220673545377  0.9149053056544213  0.034094217839387576  1.0000
  H   H31       1.0  0.14025344647885898  0.9970372962788078  0.04708910164662618  1.0000
  H   H32       1.0  0.8597465538660447  0.0029627045711943436  0.9529108985606909  1.0000
  C   C1        1.0  0.9360354697363769  0.3635117963900046  0.970177883571181  1.0000
  C   C2        1.0  0.0639645302263564  0.6364882035499704  0.02982211663730113  1.0000
  C   C3        1.0  0.08330166730154726  0.4488860368039233  0.05901932722456197  1.0000
  C   C4        1.0  0.9166983326611859  0.5511139631360517  0.9409806729839201  1.0000
  C   C5        1.0  0.1455577503300276  0.5867430250109326  0.08777662523359922  1.0000
  C   C6        1.0  0.8544422496327054  0.4132569749290424  0.9122233749748828  1.0000
  C   C7        1.0  0.42499539727564856  0.3605292338790614  0.9270696564805998  1.0000
  C   C8        1.0  0.5750046030692548  0.6394707669709404  0.07293034372671725  1.0000
  C   C9        1.0  0.35826980013105586  0.4364995465229891  0.9002489583136895  1.0000
  C   C10       1.0  0.6417301998316771  0.5635004534169858  0.09975104189479253  1.0000
  C   C11       1.0  0.43628723664656016  0.5773482989356898  0.9746548268699217  1.0000
  C   C12       1.0  0.5637127633161728  0.42265170100428506  0.02534517333856042  1.0000
  C   C13       1.0  0.9286870879258746  0.02286484478423869  0.40646525884538565  1.0000
  C   C14       1.0  0.07131291159309555  0.9771351546960533  0.5935347404282146  1.0000
  C   C15       1.0  0.08000863064773034  0.05769142176847815  0.4357606819287985  1.0000
  C   C16       1.0  0.9199913693150027  0.9423085781714968  0.5642393182796834  1.0000
  C   C17       1.0  0.15018391667455788  0.03360349514910103  0.5303894520015516  1.0000
  C   C18       1.0  0.8498160832881752  0.966396504790874  0.4696105482069304  1.0000
  C   C19       1.0  0.601717902946284  0.18427529042669497  0.5167889335685891  1.0000
  C   C20       1.0  0.3982820973986194  0.815724710423307  0.4832110666387279  1.0000
  C   C21       1.0  0.7426632570461361  0.2436081626893823  0.49566425117240503  1.0000
  C   C22       1.0  0.25733674387713223  0.7563918372498828  0.5043357490366668  1.0000
  C   C23       1.0  0.737724172770369  0.26531573228375416  0.38666188974955146  1.0000
  C   C24       1.0  0.26227582757453444  0.7346842685662478  0.6133381104577657  1.0000
  C   C25       1.0  0.8718274776117028  0.31821665012824385  0.3697698348975705  1.0000
  C   C26       1.0  0.12817252331156564  0.6817833498110212  0.6302301653115013  1.0000
  C   C27       1.0  0.8828954879232295  0.3390283594988878  0.258813158179191  1.0000
  C   C28       1.0  0.11710451159574034  0.6609716399814041  0.7411868410944092  1.0000
  C   C29       1.0  0.5990617557398479  0.46736579860678695  0.39331242222247126  1.0000
  C   C30       1.0  0.40093824422288526  0.5326342013331881  0.6066875779860108  1.0000
  C   C31       1.0  0.531929983004493  0.322668739850736  0.2998594263516251  1.0000
  C   C32       1.0  0.4680700168966472  0.6773312605395827  0.7001405729208101  1.0000
  C   C33       1.0  0.5938401036862428  0.23365090271191313  0.29620786654177617  1.0000
  C   C34       1.0  0.4061598962764902  0.7663490972280617  0.7037921336667058  1.0000
  C   C35       1.0  0.48843247380337373  0.11007483075096848  0.19097666831746227  1.0000
  C   C36       1.0  0.5115675261593593  0.8899251691890063  0.8090233318910197  1.0000
  C   C37       1.0  0.4899964407151027  0.9780500579215402  0.14568068475487866  1.0000
  C   C38       1.0  0.5100035592476303  0.021949942018434702  0.8543193154536033  1.0000
  C   C39       1.0  0.23915990828310027  0.03475622720516045  0.024539485516284824  1.0000
  C   C40       1.0  0.7608400920618033  0.9652437736448415  0.9754605146910322  1.0000
  N   N1        1.0  0.3978791663531086  0.25856042822444275  0.20329301499009816  1.0000
  N   N2        1.0  0.6021208345701597  0.7414395717148222  0.7967069852189735  1.0000
  N   N3        1.0  0.37407959766094395  0.1299343212119172  0.1373802866203534  1.0000
  N   N4        1.0  0.6259204023017892  0.8700656787280578  0.8626197135881287  1.0000
  O   O1        1.0  0.8670946009507098  0.2738232079638984  0.5766352223755065  1.0000
  O   O2        1.0  0.13290539901202328  0.7261767919760765  0.4233647778329755  1.0000
  O   O3        1.0  0.001417094039216081  0.3517028655843154  0.4537257435231298  1.0000
  O   O4        1.0  0.9985829063056875  0.6482971352656866  0.5462742566841874  1.0000
  F   F1        1.0  0.8700837038163417  0.22765065750234936  0.9359231269742638  1.0000
  F   F2        1.0  0.12991629614639122  0.7723493424376254  0.06407687323421812  1.0000
  F   F3        1.0  0.2889318426591714  0.6752731263548111  0.17263059562928773  1.0000
  F   F4        1.0  0.711068158264097  0.32472687358445407  0.827369404579784  1.0000
  F   F5        1.0  0.35342568005939395  0.22340764837309351  0.859237313544341  1.0000
  F   F6        1.0  0.6465743194595759  0.7765923511071985  0.1407626857292593  1.0000
  F   F7        1.0  0.37726690182195594  0.6566056228631654  0.9533182233724121  1.0000
  F   F8        1.0  0.6227330981407772  0.3433943770768096  0.04668177683606982  1.0000
  F   F9        1.0  0.8551473208828764  0.04208615805700587  0.3140327838342462  1.0000
  F   F10       1.0  0.14485267863609333  0.957913841423286  0.685967215439354  1.0000
  F   F11       1.0  0.296982186819579  0.06611478762498328  0.5634823174118316  1.0000
  F   F12       1.0  0.7030178135253244  0.9338852132250186  0.43651768279548536  1.0000
  I   I1        1.0  0.21332488523488105  0.3693875061330307  0.13268775357566368  1.0000
  I   I2        1.0  0.7866751151100224  0.6306124947169712  0.8673122466316532  1.0000
  I   I3        1.0  0.14307905763747747  0.3421001576069435  0.7634018514327394  1.0000
  I   I4        1.0  0.8569209423252556  0.6578998423330313  0.2365981487757426  1.0000
  I   I5        1.0  0.1967300028747788  0.14482298658093154  0.341699615259772  1.0000
  I   I6        1.0  0.8032699970879542  0.8551770133590434  0.65830038494871  1.0000
