data_image0
_chemical_formula_structural       H68C72N8O24F12S4
_chemical_formula_sum              "H68 C72 N8 O24 F12 S4"
_cell_length_a       15.90148274984667
_cell_length_b       28.431462610588405
_cell_length_c       4.211012361698755
_cell_angle_alpha    90.0
_cell_angle_beta     90.0
_cell_angle_gamma    90.0

_space_group_name_H-M_alt    "P 1"
_space_group_IT_number       1

loop_
  _space_group_symop_operation_xyz
  'x, y, z'

loop_
  _atom_site_type_symbol
  _atom_site_label
  _atom_site_symmetry_multiplicity
  _atom_site_fract_x
  _atom_site_fract_y
  _atom_site_fract_z
  _atom_site_occupancy
  H   H1        1.0  0.6042443972775211  0.6020550737908642  0.055718656191583275  1.0000
  H   H2        1.0  0.3957556027321214  0.3979449261884402  0.5557186559898795  1.0000
  H   H3        1.0  0.8957556024225065  0.10205507362535052  0.5557186559898795  1.0000
  H   H4        1.0  0.10424439758713594  0.8979449263539538  0.055718656191583275  1.0000
  H   H5        1.0  0.35626139958895503  0.6190471500205297  0.6109619680532417  1.0000
  H   H6        1.0  0.6437386004206875  0.3809528499587748  0.11096196825494543  1.0000
  H   H7        1.0  0.14373860073030229  0.11904715020673894  0.11096196825494543  1.0000
  H   H8        1.0  0.8562613992793402  0.8809528501242886  0.6109619680532417  1.0000
  H   H9        1.0  0.5157966007968086  0.7110689719659696  0.07384136718006729  1.0000
  H   H10       1.0  0.48420339921283395  0.2889310280133348  0.5738413669783635  1.0000
  H   H11       1.0  0.9842033989032192  0.2110689721521789  0.5738413669783635  1.0000
  H   H12       1.0  0.015796601106423367  0.7889310281788485  0.07384136718006729  1.0000
  H   H13       1.0  0.20936865023056436  0.6158493440811988  0.6668176554265066  1.0000
  H   H14       1.0  0.7906313497790781  0.3841506558981055  0.16681765562821044  1.0000
  H   H15       1.0  0.29063135008869295  0.11584934426740819  0.16681765562821044  1.0000
  H   H16       1.0  0.7093686499209496  0.8841506557118962  0.6668176554265066  1.0000
  H   H17       1.0  0.15872588485651362  0.6466277504539371  0.9844481905837162  1.0000
  H   H18       1.0  0.8412741151531289  0.3533722495253674  0.48444819078541995  1.0000
  H   H19       1.0  0.3412741154627437  0.1466277506401463  0.48444819078541995  1.0000
  H   H20       1.0  0.6587258845468987  0.8533722493391581  0.9844481905837162  1.0000
  H   H21       1.0  0.26705419656798657  0.6301017314996741  0.022361817518391888  1.0000
  H   H22       1.0  0.7329458034416559  0.36989826847963025  0.5223618173166881  1.0000
  H   H23       1.0  0.2329458031223986  0.13010173168588343  0.5223618173166881  1.0000
  H   H24       1.0  0.767054196887244  0.869898268293421  0.022361817518391888  1.0000
  H   H25       1.0  0.2200581439509936  0.7736663199946705  0.04068864569442394  1.0000
  H   H26       1.0  0.779941856058649  0.2263336799846339  0.5406886454927201  1.0000
  H   H27       1.0  0.27994185573939157  0.2736663198291568  0.5406886454927201  1.0000
  H   H28       1.0  0.7200581442702509  0.7263336801501475  0.04068864569442394  1.0000
  H   H29       1.0  0.16647944293279984  0.8052386201008811  0.3503988312693431  1.0000
  H   H30       1.0  0.8335205570768426  0.1947613798784234  0.8503988310676392  1.0000
  H   H31       1.0  0.33352055675758535  0.30523861993536733  0.8503988310676392  1.0000
  H   H32       1.0  0.6664794432520572  0.6947613800439372  0.3503988312693431  1.0000
  H   H33       1.0  0.16228240791097814  0.742115786971233  0.34104616815245975  1.0000
  H   H34       1.0  0.8377175920986643  0.25788421300807146  0.8410461679507559  1.0000
  H   H35       1.0  0.33771759240827914  0.2421157868057192  0.8410461679507559  1.0000
  H   H36       1.0  0.6622824076013633  0.7578842131735851  0.34104616815245975  1.0000
  H   H37       1.0  0.49098705968632284  0.7739709047470841  0.7589085225840564  1.0000
  H   H38       1.0  0.5090129403233197  0.2260290952322204  0.25890852041103435  1.0000
  H   H39       1.0  0.009012940004062322  0.27397090493329335  0.25890852041103435  1.0000
  H   H40       1.0  0.9909870600055801  0.7260290950460111  0.7589085225840564  1.0000
  H   H41       1.0  0.5449857460672063  0.792049817078825  0.11457224024993598  1.0000
  H   H42       1.0  0.4550142539424361  0.20795018290047937  0.6145722400482322  1.0000
  H   H43       1.0  0.9550142542616935  0.2920498172650343  0.6145722400482322  1.0000
  H   H44       1.0  0.04498574574794905  0.70795018271427  0.11457224024993598  1.0000
  H   H45       1.0  0.4832239144537696  0.8335177442181386  0.8929861817083423  1.0000
  H   H46       1.0  0.5167760855558728  0.16648225576116574  0.3929861819100462  1.0000
  H   H47       1.0  0.01677608586548775  0.33351774405262496  0.3929861819100462  1.0000
  H   H48       1.0  0.9832239141441548  0.6664822559266795  0.8929861817083423  1.0000
  H   H49       1.0  0.5400747291998798  0.5277104050360176  0.2546462318071701  1.0000
  H   H50       1.0  0.4599252708097627  0.47228959494328676  0.7546462316054663  1.0000
  H   H51       1.0  0.95992527112902  0.027710404870503955  0.7546462316054663  1.0000
  H   H52       1.0  0.04007472888062245  0.9722895951088005  0.2546462318071701  1.0000
  H   H53       1.0  0.5608519218175422  0.4683904293773649  0.14091619283696852  1.0000
  H   H54       1.0  0.43914807819210033  0.5316095706019395  0.6409161926352647  1.0000
  H   H55       1.0  0.9391480785113576  0.9683904291911557  0.6409161926352647  1.0000
  H   H56       1.0  0.060851921498284826  0.0316095707881488  0.14091619283696852  1.0000
  H   H57       1.0  0.7340472919176391  0.6467718376595835  0.7437561163407606  1.0000
  H   H58       1.0  0.26595270809200344  0.35322816231972104  0.24375611654246443  1.0000
  H   H59       1.0  0.7659527077823887  0.1467718374940697  0.24375611654246443  1.0000
  H   H60       1.0  0.23404729222725387  0.8532281624852348  0.7437561163407606  1.0000
  H   H61       1.0  0.8598305261898824  0.649227185136994  0.3953037338813406  1.0000
  H   H62       1.0  0.1401694738197601  0.3507728148423105  0.8953037336796368  1.0000
  H   H63       1.0  0.6401694741390175  0.14922718497148021  0.8953037336796368  1.0000
  H   H64       1.0  0.35983052587062503  0.8507728150078242  0.3953037338813406  1.0000
  H   H65       1.0  0.8699402136026207  0.4976109201195683  0.3692597661652834  1.0000
  H   H66       1.0  0.13005978640702182  0.5023890798597361  0.8692597659635796  1.0000
  H   H67       1.0  0.6300597867262792  0.9976109199333589  0.8692597659635796  1.0000
  H   H68       1.0  0.36994021328336335  0.002389080045945419  0.3692597661652834  1.0000
  C   C1        1.0  0.498763579772237  0.6218708025036805  0.27985482083092134  1.0000
  C   C2        1.0  0.5012364202374056  0.37812919747562385  0.7798548206292175  1.0000
  C   C3        1.0  0.0012364199181481726  0.12187080268988985  0.7798548206292175  1.0000
  C   C4        1.0  0.9987635800914944  0.8781291972894146  0.27985482083092134  1.0000
  C   C5        1.0  0.4414338750936723  0.6620370917178944  0.3421223297997677  1.0000
  C   C6        1.0  0.5585661249159701  0.33796290826141007  0.8421223295980639  1.0000
  C   C7        1.0  0.05856612459671284  0.1620370915523806  0.8421223295980639  1.0000
  C   C8        1.0  0.9414338754129297  0.8379629084269238  0.3421223297997677  1.0000
  C   C9        1.0  0.36799660333917134  0.6540572598989183  0.517016461362682  1.0000
  C   C10       1.0  0.6320033966704711  0.34594274008038606  0.017016461564385722  1.0000
  C   C11       1.0  0.13200339635121386  0.15405726008512763  0.017016461564385722  1.0000
  C   C12       1.0  0.8679966036584287  0.8459427398941768  0.517016461362682  1.0000
  C   C13       1.0  0.3115664147764945  0.6910508551425305  0.5652972790228759  1.0000
  C   C14       1.0  0.688433585233148  0.30894914483677394  0.0652972792245796  1.0000
  C   C15       1.0  0.18843358491389064  0.19105085497701677  0.0652972792245796  1.0000
  C   C16       1.0  0.8115664150957519  0.8089491450022877  0.5652972790228759  1.0000
  C   C17       1.0  0.32858292161782093  0.7360052483619636  0.4397497207186951  1.0000
  C   C18       1.0  0.6714170783918216  0.2639947516173409  0.9397497205169912  1.0000
  C   C19       1.0  0.1714170787014364  0.23600524819644983  0.9397497205169912  1.0000
  C   C20       1.0  0.8285829213082061  0.7639947517828546  0.4397497207186951  1.0000
  C   C21       1.0  0.4030233507665689  0.7434094537974447  0.26495615642170767  1.0000
  C   C22       1.0  0.5969766492430736  0.2565905461818596  0.7649561562200039  1.0000
  C   C23       1.0  0.0969766489238162  0.24340945363193106  0.7649561562200039  1.0000
  C   C24       1.0  0.9030233510858263  0.7565905463473733  0.26495615642170767  1.0000
  C   C25       1.0  0.4595245515749441  0.706495498846385  0.2165195923652398  1.0000
  C   C26       1.0  0.5404754484346983  0.2935045011329194  0.7165195921635359  1.0000
  C   C27       1.0  0.04047544811544107  0.2064954986808713  0.7165195921635359  1.0000
  C   C28       1.0  0.9595245518942015  0.7935045012984332  0.2165195923652398  1.0000
  C   C29       1.0  0.21793162276224934  0.6420226356276867  0.856790854573631  1.0000
  C   C30       1.0  0.7820683772473932  0.35797736435161764  0.35679085477533484  1.0000
  C   C31       1.0  0.282068377557008  0.14202263581389604  0.35679085477533484  1.0000
  C   C32       1.0  0.7179316224526345  0.8579773641654083  0.856790854573631  1.0000
  C   C33       1.0  0.20136943204437183  0.7732040103280864  0.2920108003444439  1.0000
  C   C34       1.0  0.7986305679652708  0.22679599000294104  0.7920108001427401  1.0000
  C   C35       1.0  0.2986305682748855  0.2732040101625727  0.7920108001427401  1.0000
  C   C36       1.0  0.701369431734757  0.7267959898167318  0.2920108003444439  1.0000
  C   C37       1.0  0.4880220355598492  0.7969022856939507  0.9690298625373439  1.0000
  C   C38       1.0  0.5119779638209211  0.20309771428535367  0.46902986273904773  1.0000
  C   C39       1.0  0.011977964130535975  0.296902285528437  0.46902986273904773  1.0000
  C   C40       1.0  0.9880220358791064  0.7030977144508674  0.9690298625373439  1.0000
  C   C41       1.0  0.6431923419279011  0.51832987215057  0.9833358001185145  1.0000
  C   C42       1.0  0.3568076580817414  0.4816701278287344  0.4833358003202182  1.0000
  C   C43       1.0  0.8568076577721266  0.018329872336779324  0.4833358003202182  1.0000
  C   C44       1.0  0.14319234223751592  0.9816701276425251  0.9833358001185145  1.0000
  C   C45       1.0  0.7294619232984326  0.5705689243703763  0.7520060565014647  1.0000
  C   C46       1.0  0.27053807671120994  0.429431075608928  0.2520060567031685  1.0000
  C   C47       1.0  0.7705380764015951  0.07056892455658569  0.2520060567031685  1.0000
  C   C48       1.0  0.2294619236080474  0.9294310754227187  0.7520060565014647  1.0000
  C   C49       1.0  0.7627041817919115  0.6141517388379841  0.6622543893162528  1.0000
  C   C50       1.0  0.23729581821773096  0.38584826149304335  0.1622543895179566  1.0000
  C   C51       1.0  0.737295817908116  0.11415173867247037  0.1622543895179566  1.0000
  C   C52       1.0  0.2627041821015264  0.8858482613068341  0.6622543893162528  1.0000
  C   C53       1.0  0.8339535374541013  0.6155560936032268  0.47022692880464495  1.0000
  C   C54       1.0  0.16604646255554123  0.3844439063760776  0.9702269286029411  1.0000
  C   C55       1.0  0.6660464622459263  0.11555609378943611  0.9702269286029411  1.0000
  C   C56       1.0  0.33395353776371606  0.8844439065415913  0.47022692880464495  1.0000
  C   C57       1.0  0.8707625620719875  0.5734783125060818  0.372457222938972  1.0000
  C   C58       1.0  0.12923743793765496  0.42652168747322255  0.8724572227372682  1.0000
  C   C59       1.0  0.6292374382569123  0.07347831234056815  0.8724572227372682  1.0000
  C   C60       1.0  0.3707625617527302  0.9265216876387363  0.372457222938972  1.0000
  C   C61       1.0  0.8395492307237027  0.5294151143808669  0.45321364224874927  1.0000
  C   C62       1.0  0.16045076928593982  0.47058488559843753  0.9532136420470455  1.0000
  C   C63       1.0  0.6604507696051972  0.029415114215353127  0.9532136420470455  1.0000
  C   C64       1.0  0.33954923040444535  0.9705848857639513  0.45321364224874927  1.0000
  C   C65       1.0  0.7685489556071644  0.5285607038873682  0.6464036735579467  1.0000
  C   C66       1.0  0.23145104440247802  0.47143929609193613  0.14640367375965055  1.0000
  C   C67       1.0  0.7314510447217354  0.028560703721854524  0.14640367375965055  1.0000
  C   C68       1.0  0.2685489552879071  0.9714392962574498  0.6464036735579467  1.0000
  C   C69       1.0  0.017547431543935146  0.5748275230804867  0.3156299235996121  1.0000
  C   C70       1.0  0.9824525684657074  0.42517247689881776  0.8156299233979083  1.0000
  C   C71       1.0  0.48245256814645  0.07482752291497292  0.8156299233979083  1.0000
  C   C72       1.0  0.5175474318631924  0.9251724770643315  0.3156299235996121  1.0000
  N   N1        1.0  0.5798527700247896  0.502482451067414  0.16266882192757698  1.0000
  N   N2        1.0  0.4201472299848529  0.4975175489118904  0.6626688217258732  1.0000
  N   N3        1.0  0.9201472296752381  0.002482451253623329  0.6626688217258732  1.0000
  N   N4        1.0  0.07985277033440444  0.9975175487256811  0.16266882192757698  1.0000
  N   N5        1.0  0.6593456833515162  0.5634981991406046  0.9397700814166124  1.0000
  N   N6        1.0  0.3406543166581263  0.43650180083869977  0.43977008161831627  1.0000
  N   N7        1.0  0.8406543169773836  0.0634981989750909  0.43977008161831627  1.0000
  N   N8        1.0  0.1593456830322589  0.9365018010042134  0.9397700814166124  1.0000
  O   O1        1.0  0.48207852378256466  0.5811257045160527  0.37330270608986066  1.0000
  O   O2        1.0  0.5179214762270778  0.41887429546325167  0.8733027058881568  1.0000
  O   O3        1.0  0.017921475907820474  0.08112570435053904  0.8733027058881568  1.0000
  O   O4        1.0  0.982078524101822  0.9188742956287653  0.37330270608986066  1.0000
  O   O5        1.0  0.5666097660035432  0.6324959431845366  0.11614830781515269  1.0000
  O   O6        1.0  0.43339023400609933  0.36750405679476783  0.6161483076134489  1.0000
  O   O7        1.0  0.9333902336964844  0.13249594337074588  0.6161483076134489  1.0000
  O   O8        1.0  0.06660976631315803  0.8675040566085586  0.11614830781515269  1.0000
  O   O9        1.0  0.2377453599436476  0.6872228596753024  0.7285226630782007  1.0000
  O   O10       1.0  0.7622546400659949  0.3127771403040021  0.22852266090517867  1.0000
  O   O11       1.0  0.2622546397467375  0.1872228598615116  0.22852266090517867  1.0000
  O   O12       1.0  0.7377453602629049  0.8127771401177929  0.7285226630782007  1.0000
  O   O13       1.0  0.27513782323489216  0.7729889077818768  0.4930502006796363  1.0000
  O   O14       1.0  0.7248621767747504  0.22701109219742757  0.9930502004779325  1.0000
  O   O15       1.0  0.22486217708436518  0.27298890761636313  0.9930502004779325  1.0000
  O   O16       1.0  0.7751378229252773  0.7270110923629414  0.4930502006796363  1.0000
  O   O17       1.0  0.41372002809382263  0.7878776476190722  0.1502534629807537  1.0000
  O   O18       1.0  0.5862799719158199  0.21212235236023216  0.6502534627790498  1.0000
  O   O19       1.0  0.08627997159656255  0.2878776474535585  0.6502534627790498  1.0000
  O   O20       1.0  0.9137200284130799  0.712122352525746  0.1502534629807537  1.0000
  O   O21       1.0  0.9424678890491838  0.5754002203146393  0.1690494586230154  1.0000
  O   O22       1.0  0.057532110960458786  0.42459977966466506  0.6690494584213116  1.0000
  O   O23       1.0  0.5575321112797161  0.07540022014912565  0.6690494584213116  1.0000
  O   O24       1.0  0.4424678887299264  0.9245997798301787  0.1690494586230154  1.0000
  F   F1        1.0  0.03136207219448191  0.6137240464548468  0.5020103738539509  1.0000
  F   F2        1.0  0.9686379278151607  0.38627595352445754  0.0020103740556546047  1.0000
  F   F3        1.0  0.4686379274959033  0.11372404664105615  0.0020103740556546047  1.0000
  F   F4        1.0  0.5313620725137392  0.8862759536899713  0.5020103738539509  1.0000
  F   F5        1.0  0.07899179590734151  0.5745645253549594  0.09229657303670578  1.0000
  F   F6        1.0  0.921008204102301  0.4254354746243451  0.5922965728350019  1.0000
  F   F7        1.0  0.42100820378304366  0.0745645251894456  0.5922965728350019  1.0000
  F   F8        1.0  0.5789917962265988  0.9254354747898589  0.09229657303670578  1.0000
  F   F9        1.0  0.02956729994280147  0.5365162200385409  0.5051526728698249  1.0000
  F   F10       1.0  0.970432700066841  0.4634837799407634  0.005152673071528784  1.0000
  F   F11       1.0  0.47043270037645585  0.036516219873027264  0.005152673071528784  1.0000
  F   F12       1.0  0.5295672996331866  0.9634837801062771  0.5051526728698249  1.0000
  S   S1        1.0  0.7144367357886512  0.479891000926513  0.7942452865777797  1.0000
  S   S2        1.0  0.2855632642209913  0.5201089990527914  0.2942452867794835  1.0000
  S   S3        1.0  0.7855632645402486  0.9798910010920268  0.2942452867794835  1.0000
  S   S4        1.0  0.21443673546939387  0.02010899888727771  0.7942452865777797  1.0000
