data_image0
_chemical_formula_structural       H22C18N12O8S2I6
_chemical_formula_sum              "H22 C18 N12 O8 S2 I6"
_cell_length_a       9.000331044680511
_cell_length_b       9.31296953670533
_cell_length_c       11.140138658155955
_cell_angle_alpha    78.02066125122133
_cell_angle_beta     89.0236958421457
_cell_angle_gamma    81.8503363383399

_space_group_name_H-M_alt    "P 1"
_space_group_IT_number       1

loop_
  _space_group_symop_operation_xyz
  'x, y, z'

loop_
  _atom_site_type_symbol
  _atom_site_label
  _atom_site_symmetry_multiplicity
  _atom_site_fract_x
  _atom_site_fract_y
  _atom_site_fract_z
  _atom_site_occupancy
  H   H1        1.0  0.2922444413980678  0.9043112507048774  0.6263882544884645  1.0000
  H   H2        1.0  0.7077555583992922  0.09568874911713826  0.37361174489425075  1.0000
  H   H3        1.0  0.851208242413738  0.9832271930490316  0.7303218944177008  1.0000
  H   H4        1.0  0.14879175722608004  0.016772807857508773  0.26967810496581207  1.0000
  H   H5        1.0  0.21166978752911036  0.16949721222291633  0.5147715248913656  1.0000
  H   H6        1.0  0.7883302122682497  0.8305027875990995  0.48522847449134976  1.0000
  H   H7        1.0  0.558838552157025  0.6965117880432294  0.45698804613490646  1.0000
  H   H8        1.0  0.44116144765747134  0.30348821154802275  0.5430119541655197  1.0000
  H   H9        1.0  0.4835041117542257  0.9660563146387195  0.37426142975160775  1.0000
  H   H10       1.0  0.5164958880602706  0.03394368495253269  0.6257385705488185  1.0000
  H   H11       1.0  0.39618711378840177  0.02109308797328564  0.153546645619278  1.0000
  H   H12       1.0  0.6038128860260945  0.9789069116179665  0.8464533546811481  1.0000
  H   H13       1.0  0.539106634232579  0.5476826016917811  0.28606820994568954  1.0000
  H   H14       1.0  0.4608933655819173  0.45231739789947095  0.7139317903547366  1.0000
  H   H15       1.0  0.8231798346011887  0.6661930474395058  0.7768856286696554  1.0000
  H   H16       1.0  0.17682016521330762  0.33380695215174633  0.22311437163077086  1.0000
  H   H17       1.0  0.07966228677456129  0.7329135144051242  0.7659816798803488  1.0000
  H   H18       1.0  0.9203377141340535  0.2670864854159204  0.23401831950018367  1.0000
  H   H19       1.0  0.2756749366818875  0.4976965542788261  0.8558680730167243  1.0000
  H   H20       1.0  0.7243250629579308  0.5023034466277142  0.14413192636678854  1.0000
  H   H21       1.0  0.8192466416091908  0.3903762014055773  0.8601857718090821  1.0000
  H   H22       1.0  0.18075335929942377  0.6096237984154673  0.13981422757145034  1.0000
  C   C1        1.0  0.9557548077078257  0.006280641430365846  0.6856567057235609  1.0000
  C   C2        1.0  0.04424519210667083  0.9937193581608865  0.3143432945768654  1.0000
  C   C3        1.0  0.9899830120943819  0.13634216428614354  0.6073835004240181  1.0000
  C   C4        1.0  0.010016987702978276  0.8636578355358722  0.3926164989586972  1.0000
  C   C5        1.0  0.13917463496865837  0.10357764134933754  0.5746045706447533  1.0000
  C   C6        1.0  0.8608253657995505  0.8964223593254682  0.42539542965428756  1.0000
  C   C7        1.0  0.4344510309314998  0.9092301083907283  0.20335114941358237  1.0000
  C   C8        1.0  0.5655489687254546  0.09076989228504843  0.7966488508876416  1.0000
  C   C9        1.0  0.4554344284554819  0.7723837932129137  0.16785841771948293  1.0000
  C   C10       1.0  0.5445655713590145  0.2276162063783384  0.8321415825809434  1.0000
  C   C11       1.0  0.5114267461649694  0.6675109972067341  0.272195630217678  1.0000
  C   C12       1.0  0.4885732534748487  0.33248900369980633  0.7278043691658349  1.0000
  C   C13       1.0  0.15629165050934538  0.49425443529558366  0.8491721699011524  1.0000
  C   C14       1.0  0.8437083493051512  0.5057455642956685  0.15082783039927394  1.0000
  C   C15       1.0  0.07140567133337454  0.37682200582195824  0.8791596247097228  1.0000
  C   C16       1.0  0.9285943283235799  0.6231779948538185  0.12084037559150108  1.0000
  C   C17       1.0  0.9220792222611497  0.4395793294207047  0.851615261897401  1.0000
  C   C18       1.0  0.077920778647465  0.56042067040034  0.14838473748313136  1.0000
  N   N1        1.0  0.1858353098377781  0.9623115396576942  0.6321581071073211  1.0000
  N   N2        1.0  0.8141646899767183  0.03768845993355774  0.367841893193105  1.0000
  N   N3        1.0  0.07658174083430089  0.9011670796148759  0.7001490746109206  1.0000
  N   N4        1.0  0.9234182600914501  0.09883291997540515  0.29985092568732274  1.0000
  N   N5        1.0  0.5229035029538444  0.739910628881707  0.36324508277770035  1.0000
  N   N6        1.0  0.47709649670311  0.26008937179406977  0.6367549175235235  1.0000
  N   N7        1.0  0.47505271862473886  0.8850000422624087  0.3221547029065175  1.0000
  N   N8        1.0  0.5249472811897574  0.1149999573288436  0.6778452973939088  1.0000
  N   N9        1.0  0.920203206450617  0.5850111418060883  0.808026235142249  1.0000
  N   N10       1.0  0.07979679336387942  0.4149888577851639  0.19197376515817716  1.0000
  N   N11       1.0  0.06088801845180069  0.6185834092367676  0.8062059836035799  1.0000
  N   N12       1.0  0.9391119813626956  0.38141659035448466  0.1937940166968463  1.0000
  O   O1        1.0  0.6801350888606915  0.7717664562275659  0.7410909386176282  1.0000
  O   O2        1.0  0.319864910796263  0.2282335444482108  0.2589090616835957  1.0000
  O   O3        1.0  0.4437614386447789  0.6659188805570745  0.7550893829533372  1.0000
  O   O4        1.0  0.5562385610121756  0.3340811201187023  0.2449106173478868  1.0000
  O   O5        1.0  0.6189128426937007  0.631501162591945  0.5897295589649313  1.0000
  O   O6        1.0  0.38108715710365937  0.3684988372300708  0.4102704404177841  1.0000
  O   O7        1.0  0.48161331319482764  0.8752275288651292  0.5910345661051875  1.0000
  O   O8        1.0  0.518386687713787  0.12477247095591534  0.408965433275345  1.0000
  S   S1        1.0  0.5559588552304444  0.7337077998194744  0.6712924653409157  1.0000
  S   S2        1.0  0.44404114458405197  0.26629219977177776  0.3287075349595106  1.0000
  I   I1        1.0  0.8510323729977735  0.3370165468279491  0.5566072813431487  1.0000
  I   I2        1.0  0.14896762777043548  0.6629834538468568  0.4433927189558922  1.0000
  I   I3        1.0  0.42939241613634516  0.7340561244619538  0.9922674286013202  1.0000
  I   I4        1.0  0.5706075847722695  0.26594387535909086  0.007732570779212108  1.0000
  I   I5        1.0  0.14432551973145752  0.1526637691415867  0.9409155258404488  1.0000
  I   I6        1.0  0.8556744800659024  0.8473362306804291  0.05908447354226658  1.0000
