data_image0
_chemical_formula_structural       H8C28N4F4S12I4
_chemical_formula_sum              "H8 C28 N4 F4 S12 I4"
_cell_length_a       4.7008302126722565
_cell_length_b       11.905673218352057
_cell_length_c       16.437746044320722
_cell_angle_alpha    92.12737503537302
_cell_angle_beta     92.4694748227163
_cell_angle_gamma    94.90515399397839

_space_group_name_H-M_alt    "P 1"
_space_group_IT_number       1

loop_
  _space_group_symop_operation_xyz
  'x, y, z'

loop_
  _atom_site_type_symbol
  _atom_site_label
  _atom_site_symmetry_multiplicity
  _atom_site_fract_x
  _atom_site_fract_y
  _atom_site_fract_z
  _atom_site_occupancy
  H   H1        1.0  0.7406012634533528  0.2894484483063704  0.7973908545475431  1.0000
  H   H2        1.0  0.2593987369167276  0.7105515518433639  0.20260914535952212  1.0000
  H   H3        1.0  0.47344897455448787  0.2481465650980452  0.8666714067863837  1.0000
  H   H4        1.0  0.5265510236875054  0.7518534350461141  0.13332859312294296  1.0000
  H   H5        1.0  0.6251561746879517  0.45280751217902243  0.8845505869412558  1.0000
  H   H6        1.0  0.3748438255130426  0.5471924871274412  0.11544941296055837  1.0000
  H   H7        1.0  0.9885847630382749  0.42602692647716994  0.9020433182698142  1.0000
  H   H8        1.0  0.011415237331805429  0.5739730736725644  0.09795668163725095  1.0000
  C   C1        1.0  0.7641014879557  0.028099233743112094  0.2847619641425236  1.0000
  C   C2        1.0  0.2358985125201364  0.971900766433966  0.7152380363739486  1.0000
  C   C3        1.0  0.6801967744278911  0.11032763238653781  0.335705257835535  1.0000
  C   C4        1.0  0.319803223645016  0.8896723669143506  0.6642947420685406  1.0000
  C   C5        1.0  0.43025904172435536  0.14229978206775867  0.19697973497517016  1.0000
  C   C6        1.0  0.5697409586457249  0.8577002180819757  0.803020264931895  1.0000
  C   C7        1.0  0.2670321923504551  0.1808998254958617  0.13368872107368207  1.0000
  C   C8        1.0  0.7329678080196254  0.8191001746538727  0.8663112788333831  1.0000
  C   C9        1.0  0.012014048904652967  0.20433911051303713  0.9942620286140575  1.0000
  C   C10       1.0  0.9879859514654274  0.7956608896366972  0.005737971293007621  1.0000
  C   C11       1.0  0.9249606195247596  0.2881138935928084  0.04469651484753449  1.0000
  C   C12       1.0  0.07503938084532097  0.7118861065569261  0.9553034850595307  1.0000
  C   C13       1.0  0.6980768374632436  0.2800244713213125  0.8621695763971196  1.0000
  C   C14       1.0  0.3019231629068368  0.7199755288284219  0.13783042350994557  1.0000
  C   C15       1.0  0.767111365354356  0.3917589446394659  0.9084903952848774  1.0000
  C   C16       1.0  0.23288863501572443  0.6082410555102685  0.09150960462218775  1.0000
  C   C17       1.0  0.7062328801868593  0.5267143862922025  0.27885330364945377  1.0000
  C   C18       1.0  0.29376712001413485  0.4732856130142612  0.7211466962523604  1.0000
  C   C19       1.0  0.6815380902462501  0.571235335470052  0.3584585215263741  1.0000
  C   C20       1.0  0.3184619101238303  0.42876466467968244  0.6415414783806911  1.0000
  C   C21       1.0  0.4892829914216484  0.6548284446365096  0.36165595781863874  1.0000
  C   C22       1.0  0.510717008948432  0.34517155551322476  0.6383440420884263  1.0000
  C   C23       1.0  0.8368329309482444  0.5350336719969213  0.4287923711006325  1.0000
  C   C24       1.0  0.16316706729374889  0.4649663281472379  0.5712076288086941  1.0000
  C   C25       1.0  0.03300212545483043  0.45179417929259885  0.42443815931867046  1.0000
  C   C26       1.0  0.9669978747461639  0.5482058200138646  0.5755618405831436  1.0000
  C   C27       1.0  0.18796530966250166  0.41925115775620697  0.4915717307260136  1.0000
  C   C28       1.0  0.8120346885794916  0.5807488423879522  0.5084282691833131  1.0000
  N   N1        1.0  0.7127828565154686  0.4939608882844162  0.2106310287301384  1.0000
  N   N2        1.0  0.2872171438546119  0.5060391118653182  0.7893689711769268  1.0000
  N   N3        1.0  0.3247425445214568  0.7236329130298357  0.3580425823186702  1.0000
  N   N4        1.0  0.6752574558486236  0.27636708711989877  0.6419574175883951  1.0000
  F   F1        1.0  0.3706170054511042  0.33846859680267394  0.4793373235515145  1.0000
  F   F2        1.0  0.62938299474989  0.6615314025037896  0.5206626763502998  1.0000
  F   F3        1.0  0.07281419332469638  0.3999546553251639  0.3512691749939955  1.0000
  F   F4        1.0  0.9271858070453841  0.6000453448245704  0.6487308249130697  1.0000
  S   S1        1.0  0.6332426916679674  0.027736115254079315  0.1842320819812565  1.0000
  S   S2        1.0  0.36675730870211304  0.972263884895655  0.8157679179258086  1.0000
  S   S3        1.0  0.45245717268845015  0.20328451852405632  0.2949871318058884  1.0000
  S   S4        1.0  0.5475428277873863  0.7967154816530216  0.7050128687105836  1.0000
  S   S5        1.0  0.25200653133248524  0.11665915072414466  0.03675813578868604  1.0000
  S   S6        1.0  0.7479934690375952  0.8833408494255897  0.9632418641183792  1.0000
  S   S7        1.0  0.06874081506328499  0.29664505777666633  0.14445746879048119  1.0000
  S   S8        1.0  0.9312591853067954  0.7033549423730681  0.855542531116584  1.0000
  S   S9        1.0  0.9239148992444721  0.17057611879943121  0.8923506992466577  1.0000
  S   S10       1.0  0.07608510123136439  0.8294238813776467  0.10764930126981449  1.0000
  S   S11       1.0  0.6950706958132248  0.3878905213648055  0.015761084672291727  1.0000
  S   S12       1.0  0.3049293046626116  0.6121094788122723  0.9842389158441803  1.0000
  I   I1        1.0  0.011513056522299416  0.8977498484504444  0.3184785837177666  1.0000
  I   I2        1.0  0.9884869436786948  0.10225015085601927  0.6815214161840476  1.0000
  I   I3        1.0  0.7893403272578612  0.13031878615816692  0.4591512888549308  1.0000
  I   I4        1.0  0.21065967311221914  0.8696812139915675  0.5408487110521344  1.0000
