data_image0
_chemical_formula_structural       H60C36N12O20Br8
_chemical_formula_sum              "H60 C36 N12 O20 Br8"
_cell_length_a       12.800412305413827
_cell_length_b       8.829480224006543
_cell_length_c       14.484592908898849
_cell_angle_alpha    90.0
_cell_angle_beta     104.08124733634426
_cell_angle_gamma    90.0

_space_group_name_H-M_alt    "P 1"
_space_group_IT_number       1

loop_
  _space_group_symop_operation_xyz
  'x, y, z'

loop_
  _atom_site_type_symbol
  _atom_site_label
  _atom_site_symmetry_multiplicity
  _atom_site_fract_x
  _atom_site_fract_y
  _atom_site_fract_z
  _atom_site_occupancy
  H   H1        1.0  0.0777002551193809  0.7998058527612334  0.46996209349292944  1.0000
  H   H2        1.0  0.4222997449238106  0.29980585298811785  0.03003790607645378  1.0000
  H   H3        1.0  0.9222997451604081  0.20019414678499767  0.5300379063576096  1.0000
  H   H4        1.0  0.5777002553559784  0.7001941465581132  0.9699620937740853  1.0000
  H   H5        1.0  0.0198060874191326  0.6362686044332926  0.4077752936822078  1.0000
  H   H6        1.0  0.4801939118421983  0.13626860466017712  0.0922247058848509  1.0000
  H   H7        1.0  0.9801939120787958  0.3637313951129384  0.5922247061660068  1.0000
  H   H8        1.0  0.5198060876557301  0.8637313948860539  0.9077752939633636  1.0000
  H   H9        1.0  0.21675758329468364  0.6618162034172839  0.41134982394758735  1.0000
  H   H10       1.0  0.28324241596664723  0.16181620364416832  0.08865017561947137  1.0000
  H   H11       1.0  0.7832424162032446  0.3381837972615167  0.5886501759006272  1.0000
  H   H12       1.0  0.7167575835312813  0.8381837970346322  0.9113498242287432  1.0000
  H   H13       1.0  0.19218401071999217  0.8390660482886552  0.35176545685333904  1.0000
  H   H14       1.0  0.3078159895166053  0.3390660473829701  0.14823454342781683  1.0000
  H   H15       1.0  0.8078159895597969  0.16093395239014546  0.6482345429972  1.0000
  H   H16       1.0  0.6921840099813231  0.660933952163261  0.8517654564203978  1.0000
  H   H17       1.0  0.13784696113244616  0.6698851823597013  0.29165400276206516  1.0000
  H   H18       1.0  0.36215303891074535  0.16988518145401627  0.20834599680731802  1.0000
  H   H19       1.0  0.8621530391473429  0.3301148183190993  0.7083459970884739  1.0000
  H   H20       1.0  0.6378469605871832  0.8301148180922148  0.7916540030408965  1.0000
  H   H21       1.0  0.9732612707857071  0.6260818077342696  0.9626890579231013  1.0000
  H   H22       1.0  0.5267387289488188  0.12608180796115398  0.537310942206269  1.0000
  H   H23       1.0  0.026738728712221275  0.3739181918119615  0.037310941925113195  1.0000
  H   H24       1.0  0.4732612713309703  0.8739181915850771  0.46268905764427004  1.0000
  H   H25       1.0  0.05294916523337757  0.7742538707332783  0.9334912255041441  1.0000
  H   H26       1.0  0.4470508348808322  0.2742538709601628  0.5665087744855549  1.0000
  H   H27       1.0  0.9470508350464114  0.22574612881295275  0.06650877434639495  1.0000
  H   H28       1.0  0.5529491655923628  0.7257461285860682  0.4334912260767567  1.0000
  H   H29       1.0  0.16279805050168586  0.6130875807708235  0.0608863963098762  1.0000
  H   H30       1.0  0.33720194973491174  0.11308758099770788  0.4391136039712797  1.0000
  H   H31       1.0  0.8372019499715092  0.38691241990797715  0.9391136042524355  1.0000
  H   H32       1.0  0.6627980505448774  0.8869124196810927  0.5608863958792594  1.0000
  H   H33       1.0  0.07275596657027911  0.6480769654415117  0.13562397144266874  1.0000
  H   H34       1.0  0.42724403366631836  0.1480769656683962  0.3643760288384871  1.0000
  H   H35       1.0  0.9272440329276492  0.3519230341047193  0.8643760284055457  1.0000
  H   H36       1.0  0.5727559668068767  0.8519230350104045  0.6356239717238246  1.0000
  H   H37       1.0  0.15231276581666633  0.7980670686413871  0.10588468163961222  1.0000
  H   H38       1.0  0.34768723441993116  0.29806706886827156  0.39411531864154364  1.0000
  H   H39       1.0  0.8476872344631228  0.2019329320374135  0.8941153182109268  1.0000
  H   H40       1.0  0.6523127652714031  0.7019329318105291  0.6058846819184435  1.0000
  H   H41       1.0  0.9545394187332477  0.21923206699495126  0.3104387956668388  1.0000
  H   H42       1.0  0.545460581123666  0.7192320667680667  0.18956120475398835  1.0000
  H   H43       1.0  0.04546058076468075  0.7807679325512797  0.6895612041813758  1.0000
  H   H44       1.0  0.45453941934952896  0.2807679327781643  0.8104387958083232  1.0000
  H   H45       1.0  0.009196690914416418  0.37008213927651223  0.3865784248968576  1.0000
  H   H46       1.0  0.4908033093221811  0.8700821390496277  0.11342157538429823  1.0000
  H   H47       1.0  0.9908033095587785  0.6299178602697189  0.6134215756654541  1.0000
  H   H48       1.0  0.509196690957608  0.1299178604966033  0.8865784244662409  1.0000
  H   H49       1.0  0.041663138744580906  0.405756307178671  0.2245511275309893  1.0000
  H   H50       1.0  0.4583368614920166  0.9057563069517865  0.2754488727501665  1.0000
  H   H51       1.0  0.958336861728614  0.5942436935001295  0.7754488730313224  1.0000
  H   H52       1.0  0.5416631387877724  0.09424369259444454  0.7245511271003725  1.0000
  H   H53       1.0  0.11333501293492514  0.23139407282945468  0.234075222650692  1.0000
  H   H54       1.0  0.38666498730167237  0.7313940726025702  0.26592477763046385  1.0000
  H   H55       1.0  0.8866649875382699  0.7686059267167764  0.7659247779116196  1.0000
  H   H56       1.0  0.6133350129781167  0.26860592694366087  0.7340752222200753  1.0000
  H   H57       1.0  0.16759530121848096  0.3855773968147773  0.3100848105878512  1.0000
  H   H58       1.0  0.3324046988247106  0.8855773965878928  0.18991518898153206  1.0000
  H   H59       1.0  0.8324046982794474  0.6144226027314538  0.6899151892603633  1.0000
  H   H60       1.0  0.6675953014550784  0.11442260295833823  0.810084810869007  1.0000
  C   C1        1.0  0.9739885310856116  0.8387115880123309  0.3385816406804288  1.0000
  C   C2        1.0  0.5260114687713021  0.33871158823921543  0.16141835974039836  1.0000
  C   C3        1.0  0.02601146938758351  0.16128841266646962  0.6614183598818829  1.0000
  C   C4        1.0  0.4739885307266263  0.6612884124395852  0.8385816401078162  1.0000
  C   C5        1.0  0.05632783604486089  0.7463710833263106  0.3992219130570937  1.0000
  C   C6        1.0  0.44367216419173655  0.24637108355319512  0.10077808722406215  1.0000
  C   C7        1.0  0.9436721634530675  0.25362891621992045  0.6007780867911209  1.0000
  C   C8        1.0  0.5563278362814584  0.753628915993036  0.8992219133382496  1.0000
  C   C9        1.0  0.15694361823507358  0.7282986536983306  0.36049879713444877  1.0000
  C   C10       1.0  0.3430563818081179  0.228298653925215  0.13950120243493447  1.0000
  C   C11       1.0  0.8430563812628548  0.27170134698047  0.6395012027137658  1.0000
  C   C12       1.0  0.656943618471671  0.7717013467535855  0.8604987974156045  1.0000
  C   C13       1.0  0.9410013164348435  0.8389451872670631  0.007995912895277542  1.0000
  C   C14       1.0  0.5589986832286641  0.33894518636137805  0.492004086813777  1.0000
  C   C15       1.0  0.05899868384494544  0.16105481341173747  0.9920040869552617  1.0000
  C   C16       1.0  0.44100131626926437  0.661054813184853  0.5079959130344376  1.0000
  C   C17       1.0  0.017839560098395237  0.7295107624214354  0.9901239824091556  1.0000
  C   C18       1.0  0.4821604400158145  0.22951076264831988  0.5098760175805436  1.0000
  C   C19       1.0  0.9821604401813938  0.2704892382573652  0.009876017441383573  1.0000
  C   C20       1.0  0.5178395594821139  0.7704892380304806  0.490123982267671  1.0000
  C   C21       1.0  0.10698466422978217  0.6950571907182124  0.07939114124786173  1.0000
  C   C22       1.0  0.3930153350315487  0.19505719094509677  0.420608858319197  1.0000
  C   C23       1.0  0.8930153352681461  0.3049428099605883  0.9206088586003528  1.0000
  C   C24       1.0  0.6069846644663797  0.8049428097337038  0.5793911415290175  1.0000
  C   C25       1.0  0.091956166370166  0.16789197805432463  0.4148126081084739  1.0000
  C   C26       1.0  0.40804383289116486  0.6678919778274401  0.08518739145858481  1.0000
  C   C27       1.0  0.9080438331277624  0.8321080214919064  0.5851873917397405  1.0000
  C   C28       1.0  0.5919561666067635  0.33210802171879095  0.9148126083896297  1.0000
  C   C29       1.0  0.03061972703663406  0.27412454398156044  0.34651558959796136  1.0000
  C   C30       1.0  0.46938027319996345  0.774124543754676  0.15348441068319454  1.0000
  C   C31       1.0  0.969380273243155  0.7258754566972402  0.6534844102525776  1.0000
  C   C32       1.0  0.5306197272732315  0.2258754557915551  0.8465155898791171  1.0000
  C   C33       1.0  0.0929004943370896  0.3274719719218046  0.2744840807150945  1.0000
  C   C34       1.0  0.40709950589950794  0.8274719716949201  0.22551591956606137  1.0000
  C   C35       1.0  0.9070995059426995  0.6725280287569959  0.7255159191354446  1.0000
  C   C36       1.0  0.5929004943802811  0.17252802785131094  0.7744840802844776  1.0000
  N   N1        1.0  0.9082309080137407  0.9134896613812294  0.28962712303709576  1.0000
  N   N2        1.0  0.591769091843173  0.41348966160811396  0.21037287738373142  1.0000
  N   N3        1.0  0.09176909167759363  0.08651033816500159  0.7103728775228915  1.0000
  N   N4        1.0  0.40823090843661614  0.5865103379381171  0.7896271224668077  1.0000
  N   N5        1.0  0.8800962868692739  0.9286356956445371  0.022286233194464468  1.0000
  N   N6        1.0  0.6199037127942336  0.42863569473885205  0.4777137665145901  1.0000
  N   N7        1.0  0.11990371341051505  0.07136430503426347  0.9777137666560746  1.0000
  N   N8        1.0  0.3800962867036947  0.5713643048073791  0.5222862333336246  1.0000
  N   N9        1.0  0.14306349837053725  0.0819460332481134  0.4681903667992354  1.0000
  N   N10       1.0  0.3569365018660602  0.5819460330212289  0.031809633481920396  1.0000
  N   N11       1.0  0.8569365019092517  0.9180539662981178  0.5318096330513036  1.0000
  N   N12       1.0  0.6430634984137288  0.41805396652500215  0.9681903663686185  1.0000
  O   O1        1.0  0.6424485571352336  0.034669987613505655  0.041896110866138606  1.0000
  O   O2        1.0  0.8575514435035406  0.5346699885191907  0.45810388955701303  1.0000
  O   O3        1.0  0.35755144333796135  0.9653300119327254  0.9581038896961731  1.0000
  O   O4        1.0  0.1424485567762484  0.46533001215960984  0.5418961102935259  1.0000
  O   O5        1.0  0.8092677580327584  0.19053746736142563  0.1477221006177353  1.0000
  O   O6        1.0  0.6907322416307492  0.6905374671345411  0.3522778990913192  1.0000
  O   O7        1.0  0.1907322414651699  0.8094625333173749  0.8522778992304791  1.0000
  O   O8        1.0  0.3092677578671792  0.3094625335442594  0.6477221007568953  1.0000
  O   O9        1.0  0.7924871385466927  0.19156252883394492  0.3774914467532153  1.0000
  O   O10       1.0  0.7075128620920815  0.6915625286070605  0.12250855366993635  1.0000
  O   O11       1.0  0.20751286192650223  0.8084374707122862  0.6225085538090964  1.0000
  O   O12       1.0  0.29248713818770755  0.3084374709391706  0.8774914461806027  1.0000
  O   O13       1.0  0.6177408002822196  0.03667432417137945  0.3931648847431834  1.0000
  O   O14       1.0  0.8822592003565548  0.536674323944495  0.10683511567996828  1.0000
  O   O15       1.0  0.3822591999975694  0.9633256765074211  0.6068351151073555  1.0000
  O   O16       1.0  0.11774080011664032  0.4633256767343056  0.8931648848823434  1.0000
  O   O17       1.0  0.6644730628923262  0.026161288562825916  0.22656165985591298  1.0000
  O   O18       1.0  0.8355269377464479  0.5261612883359414  0.2734383405672387  1.0000
  O   O19       1.0  0.33552693758086877  0.9738387121159746  0.7734383407063988  1.0000
  O   O20       1.0  0.16447306253334107  0.4738387123428591  0.7265616592833003  1.0000
  Br  Br1       1.0  0.748886751490433  0.02479980638097386  0.1318022631902092  1.0000
  Br  Br2       1.0  0.7511132481730747  0.5247998061540894  0.3681977365188453  1.0000
  Br  Br3       1.0  0.25111324878935604  0.9752001942978268  0.8681977366603298  1.0000
  Br  Br4       1.0  0.24888675132485372  0.47520019339214165  0.6318022633293692  1.0000
  Br  Br5       1.0  0.7316682328852675  0.02630528005131051  0.3602571492958403  1.0000
  Br  Br6       1.0  0.7683317675601007  0.5263052798244261  0.13974285041553874  1.0000
  Br  Br7       1.0  0.2683317673945216  0.9736947206274901  0.6397428505546987  1.0000
  Br  Br8       1.0  0.23166823271968823  0.473694719721805  0.8602571494350003  1.0000
