data_image0
_chemical_formula_structural       H112C98N12
_chemical_formula_sum              "H112 C98 N12"
_cell_length_a       11.121157634983813
_cell_length_b       10.42444116393166
_cell_length_c       18.198729587352847
_cell_angle_alpha    90.0
_cell_angle_beta     100.46502995176155
_cell_angle_gamma    90.0

_space_group_name_H-M_alt    "P 1"
_space_group_IT_number       1

loop_
  _space_group_symop_operation_xyz
  'x, y, z'

loop_
  _atom_site_type_symbol
  _atom_site_label
  _atom_site_symmetry_multiplicity
  _atom_site_fract_x
  _atom_site_fract_y
  _atom_site_fract_z
  _atom_site_occupancy
  H   H1        1.0  0.465238870389875  0.6493727657480381  0.06360788270128274  1.0000
  H   H2        1.0  0.534761129307961  0.1493727659366171  0.9363921168508981  1.0000
  H   H3        1.0  0.8049743084753127  0.33424328510343565  0.12264107018282216  1.0000
  H   H4        1.0  0.19502569122252314  0.8342432849148567  0.8773589293693586  1.0000
  H   H5        1.0  0.7382486542383639  0.013159019063259138  0.24100806995745988  1.0000
  H   H6        1.0  0.2617513463718898  0.5131590188746802  0.7589919302466719  1.0000
  H   H7        1.0  0.8802364028249516  0.3147834227655019  0.4775625370320489  1.0000
  H   H8        1.0  0.11976359687288436  0.814783422576923  0.5224374625201319  1.0000
  H   H9        1.0  0.6662558745345271  0.16889900497418575  0.1465464590936131  1.0000
  H   H10       1.0  0.3337441251613317  0.6688990047856068  0.8534535410078359  1.0000
  H   H11       1.0  0.8121906829572227  0.8522465981907136  0.6123020857038649  1.0000
  H   H12       1.0  0.187809317653031  0.35224659837929256  0.3876979145002668  1.0000
  H   H13       1.0  0.9257270454829537  0.48620635584156363  0.558313046173601  1.0000
  H   H14       1.0  0.07427295421290513  0.9862063566122689  0.44168695392784785  1.0000
  H   H15       1.0  0.5793560502459579  0.524653267642142  0.5388888931425486  1.0000
  H   H16       1.0  0.42064394945187805  0.024653267830720985  0.4611111064096321  1.0000
  H   H17       1.0  0.004504144240075227  0.7202131185676305  0.4152886855767064  1.0000
  H   H18       1.0  0.9954958554557835  0.22021311875620941  0.5847113145247425  1.0000
  H   H19       1.0  0.7336597258164067  0.18682818765753917  0.38653015649276523  1.0000
  H   H20       1.0  0.2663402738794521  0.6868281874689603  0.6134698436086836  1.0000
  H   H21       1.0  0.3898076279765275  0.23464655817362295  0.3537303552886041  1.0000
  H   H22       1.0  0.6101923717193312  0.7346465579850441  0.6462696448128449  1.0000
  H   H23       1.0  0.6004813723603647  0.812091365558356  0.038557520130880284  1.0000
  H   H24       1.0  0.3995186273354941  0.3120913647876509  0.9614424799705685  1.0000
  H   H25       1.0  0.7560486176068054  0.898368873950066  0.4929801871815718  1.0000
  H   H26       1.0  0.2439513830034482  0.39836887413864486  0.5070198130225599  1.0000
  H   H27       1.0  0.9923595088866528  0.843279579380782  0.16440942902672373  1.0000
  H   H28       1.0  0.007640491723600997  0.343279579569361  0.835590571177408  1.0000
  H   H29       1.0  0.8462505615596753  0.5573511998036627  0.08319821249882044  1.0000
  H   H30       1.0  0.15374943813618364  0.057351199992241565  0.9168017876026284  1.0000
  H   H31       1.0  0.0934895688344655  0.8506165242392395  0.643680127875833  1.0000
  H   H32       1.0  0.9065104308613933  0.3506165244278184  0.35631987222561595  1.0000
  H   H33       1.0  0.001047389322414052  0.9882236666694026  0.6263979510227123  1.0000
  H   H34       1.0  0.9989526103734446  0.48822366685798163  0.37360204907873656  1.0000
  H   H35       1.0  0.341373444471081  0.12940464805609062  0.24795353180865404  1.0000
  H   H36       1.0  0.6586265561391728  0.6294046478675117  0.7520464683954776  1.0000
  H   H37       1.0  0.4251055902151746  0.4269973478675371  0.10529179178570527  1.0000
  H   H38       1.0  0.5748944094806843  0.9269973486382423  0.8947082083157435  1.0000
  H   H39       1.0  0.556784895470856  0.01981161164922413  0.18526723578333426  1.0000
  H   H40       1.0  0.44321510422697996  0.5198116114606453  0.8147327637688465  1.0000
  H   H41       1.0  0.907954265429952  0.8647375325201746  0.9259091492525455  1.0000
  H   H42       1.0  0.09204573426788393  0.36473753270875353  0.07409085029963525  1.0000
  H   H43       1.0  0.7506584325492925  0.8589584898786908  0.8867359908393571  1.0000
  H   H44       1.0  0.24934156714656625  0.3589584900672697  0.11326400926209192  1.0000
  H   H45       1.0  0.9777371775117181  0.9379025087530435  0.0569315818518061  1.0000
  H   H46       1.0  0.022262823098535604  0.4379025089416224  0.9430684183523255  1.0000
  H   H47       1.0  0.9942788308404906  0.629669385320254  0.6365495817477311  1.0000
  H   H48       1.0  0.005721168855368177  0.1296693855088328  0.3634504183537178  1.0000
  H   H49       1.0  0.039184057576011774  0.7469739324676808  0.2843423497632096  1.0000
  H   H50       1.0  0.960815942119847  0.2469739326562598  0.7156576503382392  1.0000
  H   H51       1.0  0.4329595220704553  0.3917573312351781  0.44979809492463896  1.0000
  H   H52       1.0  0.5670404776273806  0.8917573310465993  0.5502019046275418  1.0000
  H   H53       1.0  0.6997487947703801  0.9824699299408068  0.3691237198176345  1.0000
  H   H54       1.0  0.3002512058398737  0.48246993012938566  0.6308762803864972  1.0000
  H   H55       1.0  0.9019374692831102  0.5843315957382801  0.7491432354907335  1.0000
  H   H56       1.0  0.09806253041472571  0.08433159592685896  0.2508567640614474  1.0000
  H   H57       1.0  0.8104439802112803  0.7230220221375707  0.7316000804703754  1.0000
  H   H58       1.0  0.1895560203989735  0.22302202232614968  0.2683999197337564  1.0000
  H   H59       1.0  0.7023547494750141  0.9643732274861259  0.0028295357461262825  1.0000
  H   H60       1.0  0.2976452502208447  0.4643732276747047  0.9971704643553226  1.0000
  H   H61       1.0  0.8059293236740034  0.17091357435682683  0.03369435712161002  1.0000
  H   H62       1.0  0.19407067602383243  0.670913575127532  0.9663056424305707  1.0000
  H   H63       1.0  0.9650433579456645  0.17702235649666312  0.0691998441224193  1.0000
  H   H64       1.0  0.03495664175217145  0.6770223563080842  0.9308001554297616  1.0000
  H   H65       1.0  0.9189054930939271  0.94940341495172  0.7435200991416879  1.0000
  H   H66       1.0  0.08109450751632659  0.44940341514029886  0.2564799010624438  1.0000
  H   H67       1.0  0.07997710211816629  0.9553082053411537  0.7635139791824527  1.0000
  H   H68       1.0  0.9200228975776925  0.4553082055297325  0.23648602091899626  1.0000
  H   H69       1.0  0.40930647321766295  0.003955424502050585  0.06631590373811462  1.0000
  H   H70       1.0  0.5906935264781957  0.5039554243134716  0.9336840963633343  1.0000
  H   H71       1.0  0.2898177566879765  0.06092690917548007  0.10947098708946314  1.0000
  H   H72       1.0  0.7101822430078824  0.5609269089869011  0.8905290130119858  1.0000
  H   H73       1.0  0.9212883074862146  0.23146244696055907  0.9331386926366233  1.0000
  H   H74       1.0  0.078711692209644  0.7314624477312642  0.06686130746482571  1.0000
  H   H75       1.0  0.012993683662371283  0.09482581986458996  0.9519972571374765  1.0000
  H   H76       1.0  0.9870063169478824  0.5948258196760111  0.04800274306665524  1.0000
  H   H77       1.0  0.8536834865392732  0.052787876236854894  0.8409698977310105  1.0000
  H   H78       1.0  0.14631651315658556  0.5527878760482761  0.15903010237043846  1.0000
  H   H79       1.0  0.7371539686331442  0.09753455307685073  0.8894744593758379  1.0000
  H   H80       1.0  0.26284603197908674  0.5975345538475558  0.11052554027902571  1.0000
  H   H81       1.0  0.4889035324603821  0.8826878549458446  0.28761636680197755  1.0000
  H   H82       1.0  0.5110964681498716  0.3826878551344235  0.7123836334021542  1.0000
  H   H83       1.0  0.3704887846251766  0.940525561592999  0.33178124351867133  1.0000
  H   H84       1.0  0.6295112150706822  0.44052556178157787  0.6682187565827777  1.0000
  H   H85       1.0  0.09124000702143839  0.7168107059641885  0.7665750094867296  1.0000
  H   H86       1.0  0.9087599926763975  0.21681070615276746  0.23342499006545114  1.0000
  H   H87       1.0  0.9945287150737542  0.7690941647538815  0.8275308060974497  1.0000
  H   H88       1.0  0.005471285538476637  0.26909416494246047  0.17246919355741386  1.0000
  H   H89       1.0  0.281797347938844  0.822331206555237  0.10029079935457572  1.0000
  H   H90       1.0  0.7182026517570147  0.3223312057845318  0.8997092007468732  1.0000
  H   H91       1.0  0.4348684151474536  0.810703908929022  0.1483621583450934  1.0000
  H   H92       1.0  0.5651315845484052  0.31070390911760093  0.8516378417563555  1.0000
  H   H93       1.0  0.29527007781662096  0.7694875479516483  0.23752844783899218  1.0000
  H   H94       1.0  0.7047299227936328  0.2694875481402273  0.7624715523651395  1.0000
  H   H95       1.0  0.2197846194028275  0.9173977165403372  0.21355147003765565  1.0000
  H   H96       1.0  0.7802153812074263  0.4173977167289162  0.7864485301664761  1.0000
  H   H97       1.0  0.4809547644152869  0.4305874021842603  0.23603468545859102  1.0000
  H   H98       1.0  0.5190452352805719  0.9305874019956815  0.7639653146428579  1.0000
  H   H99       1.0  0.2695806799482056  0.42590967805179386  0.2589128051089315  1.0000
  H   H100      1.0  0.7304193197476532  0.925909677863215  0.7410871949925174  1.0000
  H   H101      1.0  0.2056855753085223  0.5729401361739179  0.35385563369147427  1.0000
  H   H102      1.0  0.7943144243873365  0.07294013540321276  0.6461443664099746  1.0000
  H   H103      1.0  0.35871272776522994  0.7215564145563353  0.42553404813217327  1.0000
  H   H104      1.0  0.6412872719306288  0.22155641474491433  0.5744659519692756  1.0000
  H   H105      1.0  0.5708228717756715  0.7266336910422088  0.4014400363375903  1.0000
  H   H106      1.0  0.42917712792018725  0.2266336912307876  0.5985599637638587  1.0000
  H   H107      1.0  0.6919659731254544  0.6776783607780084  0.2792197439061933  1.0000
  H   H108      1.0  0.3080340274847993  0.17767836096658723  0.7207802562979384  1.0000
  H   H109      1.0  0.6843490562806904  0.5101993005056273  0.2608946668643519  1.0000
  H   H110      1.0  0.31565094432956325  0.010199299734922177  0.7391053333397799  1.0000
  H   H111      1.0  0.7357007269016564  0.5682170465400722  0.35334151157397875  1.0000
  H   H112      1.0  0.2642992727961796  0.06821704672865109  0.646658487978202  1.0000
  C   C1        1.0  0.5741264353471038  0.27980983576292573  0.41296467699820993  1.0000
  C   C2        1.0  0.4258735643487549  0.7798098355743468  0.5870353231032389  1.0000
  C   C3        1.0  0.5396733454544772  0.5800511303110887  0.07701092353379091  1.0000
  C   C4        1.0  0.46032665515577653  0.0800511304996676  0.9229890766703408  1.0000
  C   C5        1.0  0.7307929739629344  0.403587924171585  0.10938121702603032  1.0000
  C   C6        1.0  0.26920702573292427  0.9035879239830061  0.8906187830754185  1.0000
  C   C7        1.0  0.8920405762348738  0.8838651842440773  0.25438641883410607  1.0000
  C   C8        1.0  0.10795942437537993  0.3838651834733722  0.7456135813700256  1.0000
  C   C9        1.0  0.7960114024663466  0.9485984873908035  0.2791342538041183  1.0000
  C   C10       1.0  0.2039885972295121  0.4485984875793825  0.7208657462973305  1.0000
  C   C11       1.0  0.611580666178062  0.36669225811604955  0.11576695877781647  1.0000
  C   C12       1.0  0.38841933443219173  0.8666922579274706  0.8842330414263153  1.0000
  C   C13       1.0  0.7388383015900949  0.428573297095093  0.5140202254059387  1.0000
  C   C14       1.0  0.26116169902213604  0.928573296906514  0.48597977424892486  1.0000
  C   C15       1.0  0.7818052275405085  0.33101814914925853  0.4719247364491809  1.0000
  C   C16       1.0  0.2181947721553503  0.8310181489606796  0.528075263652268  1.0000
  C   C17       1.0  0.5883875521499284  0.23675117938592452  0.14054049741190316  1.0000
  C   C18       1.0  0.41161244754593024  0.7367511791973456  0.8594595026895457  1.0000
  C   C19       1.0  0.6587822942927164  0.6167723160303263  0.07039486306284161  1.0000
  C   C20       1.0  0.34121770631753734  0.1167723162189052  0.92960513714129  1.0000
  C   C21       1.0  0.901839430706255  0.8089392694907327  0.6082689235487652  1.0000
  C   C22       1.0  0.09816056990399862  0.3089392687200276  0.3917310766553665  1.0000
  C   C23       1.0  0.8296058495289145  0.5084890217751293  0.5614032429234118  1.0000
  C   C24       1.0  0.17039415108331643  0.008489021963708227  0.4385967567314518  1.0000
  C   C25       1.0  0.6122218875004252  0.4484090827020418  0.5066747312841932  1.0000
  C   C26       1.0  0.38777811219543357  0.9484090825134629  0.4933252688172558  1.0000
  C   C27       1.0  0.9463364526067976  0.7834845256030594  0.37639924597074814  1.0000
  C   C28       1.0  0.053663547089061146  0.2834845257916383  0.6236007541307008  1.0000
  C   C29       1.0  0.7006415240425825  0.258660479501717  0.4215504467234879  1.0000
  C   C30       1.0  0.29935847565327617  0.7586604793131381  0.5784495533779609  1.0000
  C   C31       1.0  0.48729423013356993  0.2116371204274623  0.3559365019524034  1.0000
  C   C32       1.0  0.5127057704766838  0.7116371202388835  0.6440634982517284  1.0000
  C   C33       1.0  0.6797111647567081  0.7461002367120261  0.04436036397845988  1.0000
  C   C34       1.0  0.3202888349391506  0.246100236900605  0.9556396361229891  1.0000
  C   C35       1.0  0.8379630739739572  0.8488355443566692  0.4801053150269677  1.0000
  C   C36       1.0  0.1620369266362965  0.34883554454524807  0.5198946851771641  1.0000
  C   C37       1.0  0.9174416250078171  0.9026740064069769  0.17889285253634668  1.0000
  C   C38       1.0  0.08255837468804161  0.40267400563627176  0.8211071475651023  1.0000
  C   C39       1.0  0.7541390134759104  0.527239260461908  0.08755023376612125  1.0000
  C   C40       1.0  0.24586098713434326  0.027239259691202913  0.9124497664380106  1.0000
  C   C41       1.0  0.0056524817523200465  0.8918778046509153  0.6515104902770489  1.0000
  C   C42       1.0  0.9943475179435386  0.3918778038802101  0.34848950982439997  1.0000
  C   C43       1.0  0.4273819126763673  0.07376906233215913  0.2545956323944721  1.0000
  C   C44       1.0  0.5726180870194915  0.5737690621435803  0.7454043677069768  1.0000
  C   C45       1.0  0.5165427232509514  0.4567841541928834  0.0994519664652198  1.0000
  C   C46       1.0  0.4834572764449074  0.9567841549635886  0.900548033636229  1.0000
  C   C47       1.0  0.852589306317119  0.8517224856829945  0.4017104835901503  1.0000
  C   C48       1.0  0.1474106942931347  0.35172248491228925  0.5982895166139813  1.0000
  C   C49       1.0  0.46920587298992983  0.07317613366549966  0.17837342557259928  1.0000
  C   C50       1.0  0.5307941276223012  0.5731761334769208  0.8216265740822644  1.0000
  C   C51       1.0  0.8202145465480163  0.9148913001685511  0.9242580444345201  1.0000
  C   C52       1.0  0.1797854531498195  0.41489130035713  0.07574195511766069  1.0000
  C   C53       1.0  0.8889540819737124  0.9859866844050024  0.057966497487325984  1.0000
  C   C54       1.0  0.1110459177221463  0.4859866845935812  0.9420335026141229  1.0000
  C   C55       1.0  0.905561003139644  0.6732042772979872  0.6427136088200028  1.0000
  C   C56       1.0  0.09443899747060965  0.173204277486566  0.35728639138412893  1.0000
  C   C57       1.0  0.9654018456961945  0.7989847166885121  0.30357950344958246  1.0000
  C   C58       1.0  0.03459815399966446  0.298984716877091  0.6964204966518664  1.0000
  C   C59       1.0  0.5311057743793425  0.37382869438444155  0.45726261632804993  1.0000
  C   C60       1.0  0.46889422531651626  0.8738286941958626  0.542737383773399  1.0000
  C   C61       1.0  0.7754687103987594  0.9314503432180008  0.35147876453617816  1.0000
  C   C62       1.0  0.22453128929709928  0.4314503424472957  0.6485212355652707  1.0000
  C   C63       1.0  0.8995061390226338  0.6818900119648276  0.725907957672606  1.0000
  C   C64       1.0  0.10049386067322509  0.18189001215340644  0.2740920424288429  1.0000
  C   C65       1.0  0.789590264397166  0.9125812559540641  0.0031953917761214476  1.0000
  C   C66       1.0  0.21040973530066995  0.412581256142643  0.9968046077760594  1.0000
  C   C67       1.0  0.8940898878264778  0.12463987849013466  0.03082042865881954  1.0000
  C   C68       1.0  0.10591011187135808  0.6246398783015558  0.9691795708933613  1.0000
  C   C69       1.0  0.0019910878018630077  0.8985801207656382  0.7348604699738251  1.0000
  C   C70       1.0  0.9980089118939957  0.3985801209542171  0.26513953012762365  1.0000
  C   C71       1.0  0.37513158814305525  0.004450656804561169  0.11928737896767722  1.0000
  C   C72       1.0  0.6248684115528035  0.5044506566159822  0.8807126211337717  1.0000
  C   C73       1.0  0.9199735051251753  0.13095640989594534  0.9513704760016365  1.0000
  C   C74       1.0  0.08002649457068345  0.6309564097073664  0.048629524099812325  1.0000
  C   C75       1.0  0.8282588429852548  0.05251815146640595  0.8965965473469001  1.0000
  C   C76       1.0  0.17174115671060397  0.552518151277827  0.10340345275454885  1.0000
  C   C77       1.0  0.4021610996338263  0.9364292950086812  0.27806090230137176  1.0000
  C   C78       1.0  0.5978389000620326  0.4364292951972601  0.7219390978000771  1.0000
  C   C79       1.0  0.0030005046674172423  0.7639143091481126  0.7683631925286198  1.0000
  C   C80       1.0  0.9969994959428364  0.2639143083774074  0.2316368076755119  1.0000
  C   C81       1.0  0.350438085325358  0.8681535669569377  0.14350799079999607  1.0000
  C   C82       1.0  0.6495619152848957  0.36815356618623246  0.8564920094041356  1.0000
  C   C83       1.0  0.3087585834050713  0.8679926480190665  0.21906219892048684  1.0000
  C   C84       1.0  0.6912414162907875  0.3679926482076453  0.7809378011809621  1.0000
  C   C85       1.0  0.45392544325524214  0.49689282413738395  0.27637853803649703  1.0000
  C   C86       1.0  0.5460745564406166  0.9968928249080891  0.7236214620649518  1.0000
  C   C87       1.0  0.33446650171247166  0.49358879762331326  0.28991894152456893  1.0000
  C   C88       1.0  0.665533498897782  0.9935887974347343  0.7100810586795628  1.0000
  C   C89       1.0  0.5405474053435686  0.5814376209413978  0.3154979974636888  1.0000
  C   C90       1.0  0.4594525943522902  0.08143762017069268  0.6845020026377601  1.0000
  C   C91       1.0  0.29908591908752485  0.5748561554296174  0.34315123559426614  1.0000
  C   C92       1.0  0.7009140806083339  0.07485615561819634  0.6568487645071829  1.0000
  C   C93       1.0  0.38488272397304635  0.6586557353075789  0.3833103665750868  1.0000
  C   C94       1.0  0.6151172766372073  0.15865573549615775  0.6166896336290448  1.0000
  C   C95       1.0  0.5041210257540684  0.6616728025541974  0.36940667271190325  1.0000
  C   C96       1.0  0.49587897394179037  0.1616728017834922  0.6305933273895457  1.0000
  C   C97       1.0  0.6696194849892678  0.5840720269079276  0.30133407075839025  1.0000
  C   C98       1.0  0.33038051470659086  0.08407202709650648  0.6986659293430586  1.0000
  N   N1        1.0  0.781817894598097  0.7816730874930401  0.028075763488042714  1.0000
  N   N2        1.0  0.2181821060141339  0.2816730876816189  0.9719242361668209  1.0000
  N   N3        1.0  0.483893904671744  0.20397587041472026  0.15457599191289587  1.0000
  N   N4        1.0  0.516106095026092  0.7039758702261414  0.8454240076392849  1.0000
  N   N5        1.0  0.5218174546953667  0.1315608605231695  0.3104898613197836  1.0000
  N   N6        1.0  0.4781825459148869  0.6315608603345907  0.6895101388843482  1.0000
  N   N7        1.0  0.91818797528228  0.7988692236869145  0.5313617550945754  1.0000
  N   N8        1.0  0.0818120244135788  0.2988692238754934  0.4686382450068737  1.0000
  N   N9        1.0  0.8032777562518137  0.5995961156773023  0.603025201774784  1.0000
  N   N10       1.0  0.19672224344404488  0.09959611586588128  0.3969747983266649  1.0000
  N   N11       1.0  0.8581451559523653  0.9818739737737276  0.13199285879482117  1.0000
  N   N12       1.0  0.1418548437434934  0.4818739739623065  0.8680071413066278  1.0000
