data_image0
_chemical_formula_structural       H18C12N22O4S2
_chemical_formula_sum              "H18 C12 N22 O4 S2"
_cell_length_a       5.139529667671223
_cell_length_b       8.752586374703819
_cell_length_c       14.12259372622734
_cell_angle_alpha    88.97398749174295
_cell_angle_beta     84.43848082646618
_cell_angle_gamma    73.89734277862343

_space_group_name_H-M_alt    "P 1"
_space_group_IT_number       1

loop_
  _space_group_symop_operation_xyz
  'x, y, z'

loop_
  _atom_site_type_symbol
  _atom_site_label
  _atom_site_symmetry_multiplicity
  _atom_site_fract_x
  _atom_site_fract_y
  _atom_site_fract_z
  _atom_site_occupancy
  H   H1        1.0  0.32147969018620237  0.3517636479770567  0.4891457685092276  1.0000
  H   H2        1.0  0.6785203101376389  0.6482363520841502  0.5108542314382996  1.0000
  H   H3        1.0  0.41770032057369544  0.1552027607888536  0.43546779201455244  1.0000
  H   H4        1.0  0.5822996797501458  0.8447972392723533  0.5645322079329748  1.0000
  H   H5        1.0  0.41098849115897884  0.17738732152032363  0.5633174637799185  1.0000
  H   H6        1.0  0.5890115091648622  0.8226126785408834  0.43668253616760855  1.0000
  H   H7        1.0  0.639513468290742  0.43085821827411375  0.36826617186022953  1.0000
  H   H8        1.0  0.36048653203309927  0.5691417817870932  0.6317338280872975  1.0000
  H   H9        1.0  0.7619402436317428  0.2347400632643998  0.3145686752487833  1.0000
  H   H10       1.0  0.2380597566920985  0.765259936796807  0.6854313246987438  1.0000
  H   H11       1.0  0.0009968646117178607  0.33559024784340763  0.3466288198728985  1.0000
  H   H12       1.0  0.9990031357121234  0.6644097522177992  0.6533711800746287  1.0000
  H   H13       1.0  0.05850046625929847  0.2843305134027438  0.13216276095192714  1.0000
  H   H14       1.0  0.9414995340645428  0.7156694866584631  0.8678372389956  1.0000
  H   H15       1.0  0.6730958996638097  0.2335342357572508  0.037977053718210786  1.0000
  H   H16       1.0  0.326904100674063  0.7664657643040463  0.9620229469368873  1.0000
  H   H17       1.0  0.9288922137146266  0.32786319017572224  0.6301532700232888  1.0000
  H   H18       1.0  0.07110778660921466  0.6721368098854847  0.3698467299242383  1.0000
  C   C1        1.0  0.4475102688829914  0.22846189161867994  0.493619523080512  1.0000
  C   C2        1.0  0.5524897314408499  0.7715381084425271  0.5063804768670152  1.0000
  C   C3        1.0  0.7997825218621358  0.3178358250840688  0.36534063065488326  1.0000
  C   C4        1.0  0.20021747650382765  0.682164174983578  0.6346593693667228  1.0000
  C   C5        1.0  0.5761573390507095  0.331539335714916  0.7967160140847889  1.0000
  C   C6        1.0  0.42384265931525394  0.6684606643527308  0.20328398593681735  1.0000
  C   C7        1.0  0.5545802762092061  0.17371169575532086  0.781160211391009  1.0000
  C   C8        1.0  0.44541972411463526  0.8262883043058861  0.21883978855651814  1.0000
  C   C9        1.0  0.22894539916994822  0.15129330377557712  0.9224460869002985  1.0000
  C   C10       1.0  0.7710545991960152  0.8487066962920697  0.07755391312130763  1.0000
  C   C11       1.0  0.08186031736244477  0.23761946557843663  0.06028218444514981  1.0000
  C   C12       1.0  0.9181396829613965  0.7623805344827704  0.9397178155023773  1.0000
  N   N1        1.0  0.7796066321562465  0.39065414658908393  0.7575493476028675  1.0000
  N   N2        1.0  0.22039336816759478  0.6093458534721231  0.2424506523446597  1.0000
  N   N3        1.0  0.7331521454625658  0.5414640358088092  0.7873464693449429  1.0000
  N   N4        1.0  0.2668478548612755  0.4585359642523978  0.21265353060258424  1.0000
  N   N5        1.0  0.5055609297435253  0.5725004113704802  0.8433912418471445  1.0000
  N   N6        1.0  0.49443907058031594  0.4274995886907268  0.15660875810038263  1.0000
  N   N7        1.0  0.40236376050200545  0.4459099395519441  0.8505066872598113  1.0000
  N   N8        1.0  0.5976362398218358  0.5540900605092629  0.14949331268771585  1.0000
  N   N9        1.0  0.6679189109650602  0.07929703464187385  0.7068012185083417  1.0000
  N   N10       1.0  0.33208108740090325  0.920702965425773  0.29319878151326456  1.0000
  N   N11       1.0  0.5765194089571777  0.9479421724763817  0.7192880393740236  1.0000
  N   N12       1.0  0.42348059136666366  0.05205782758482533  0.28071196057350345  1.0000
  N   N13       1.0  0.41543329837831844  0.95751810297845  0.7970319159385971  1.0000
  N   N14       1.0  0.5845667019455228  0.04248189708275692  0.20296808400893007  1.0000
  N   N15       1.0  0.399000959309963  0.0996435178705783  0.8381186537855381  1.0000
  N   N16       1.0  0.6009990390560005  0.9003564821970685  0.16188134623606817  1.0000
  N   N17       1.0  0.3133561291724086  0.1968576344503728  0.00270699854131379  1.0000
  N   N18       1.0  0.6866438691935548  0.8031423656172739  0.9972930014802923  1.0000
  N   N19       1.0  0.876724684918298  0.21489329670550822  0.015096568148398173  1.0000
  N   N20       1.0  0.12327531540554318  0.7851067033556988  0.9849034317991289  1.0000
  N   N21       1.0  0.9661826328166556  0.15913204507676873  0.9260554195320296  1.0000
  N   N22       1.0  0.0338173675071855  0.8408679549844382  0.07394458041549741  1.0000
  O   O1        1.0  0.8021192535748731  0.368678143668428  0.5476403289330765  1.0000
  O   O2        1.0  0.19788074674896816  0.6313218563927789  0.4523596710144507  1.0000
  O   O3        1.0  0.0017878012095917993  0.31769064389571217  0.7000367797592931  1.0000
  O   O4        1.0  0.9982121971563718  0.6823093561719347  0.29996322026231304  1.0000
  S   S1        1.0  0.795177882049033  0.23185886578785317  0.48112824930722503  1.0000
  S   S2        1.0  0.2048221182748082  0.7681411342733538  0.518871750640302  1.0000
