data_image0
_chemical_formula_structural       H48C24N8O20
_chemical_formula_sum              "H48 C24 N8 O20"
_cell_length_a       8.182420856546267
_cell_length_b       11.602371561658456
_cell_length_c       9.723001818544388
_cell_angle_alpha    90.0
_cell_angle_beta     111.35490140581771
_cell_angle_gamma    90.0

_space_group_name_H-M_alt    "P 1"
_space_group_IT_number       1

loop_
  _space_group_symop_operation_xyz
  'x, y, z'

loop_
  _atom_site_type_symbol
  _atom_site_label
  _atom_site_symmetry_multiplicity
  _atom_site_fract_x
  _atom_site_fract_y
  _atom_site_fract_z
  _atom_site_occupancy
  H   H1        1.0  0.3167477186659304  0.09439516345255278  0.10199682705248463  1.0000
  H   H2        1.0  0.18325228166030996  0.5943951633810822  0.398003173582139  1.0000
  H   H3        1.0  0.6832522819914516  0.9056048364045062  0.8980031731897828  1.0000
  H   H4        1.0  0.816747718997072  0.4056048364759766  0.6019968266601284  1.0000
  H   H5        1.0  0.3205850575039388  0.3272963927951634  0.12161753674429594  1.0000
  H   H6        1.0  0.1794149428272029  0.8272963927236929  0.3783824628633479  1.0000
  H   H7        1.0  0.6794149431534433  0.6727036079237881  0.8783824634979717  1.0000
  H   H8        1.0  0.8205850565179622  0.17270360799525875  0.6216175369729541  1.0000
  H   H9        1.0  0.09777100485685716  0.8299410485888264  0.10460178410664493  1.0000
  H   H10       1.0  0.40222899415716634  0.3299410486602971  0.3953982161220132  1.0000
  H   H11       1.0  0.902228994488308  0.17005895126823234  0.895398215729657  1.0000
  H   H12       1.0  0.5977710051879987  0.6700589511967617  0.6046017837142887  1.0000
  H   H13       1.0  0.12883403350396863  0.592882383006249  0.9424795524108801  1.0000
  H   H14       1.0  0.3711659662482579  0.09288238307771955  0.5575204473773627  1.0000
  H   H15       1.0  0.8711659658411965  0.4071176168508099  0.05752044742542182  1.0000
  H   H16       1.0  0.6288340330969072  0.9071176167793393  0.44247955245893933  1.0000
  H   H17       1.0  0.12461920081529547  0.8235942194419866  0.9343620670195024  1.0000
  H   H18       1.0  0.37538079893693105  0.3235942195134572  0.5656379327687404  1.0000
  H   H19       1.0  0.8753807998420865  0.1764057804150722  0.065637933222765  1.0000
  H   H20       1.0  0.624619200408234  0.6764057803436015  0.43436206706756153  1.0000
  H   H21       1.0  0.10031559965740372  0.595194149170387  0.11199732688042753  1.0000
  H   H22       1.0  0.39968440066883665  0.09519414924185765  0.38800267375419617  1.0000
  H   H23       1.0  0.8996844009999784  0.40480585068667174  0.8880026733618399  1.0000
  H   H24       1.0  0.6003155999885453  0.9048058506152011  0.6119973264880714  1.0000
  H   H25       1.0  0.40648404520404735  0.7103645505748559  0.05173341505854289  1.0000
  H   H26       1.0  0.09351595512219306  0.21036454978443384  0.4482665855760808  1.0000
  H   H27       1.0  0.5935159541411179  0.2896354501440956  0.948266584777759  1.0000
  H   H28       1.0  0.9064840455351889  0.789635450072625  0.5517334146661867  1.0000
  H   H29       1.0  0.3775458579060984  0.7145046955223545  0.22222654186104276  1.0000
  H   H30       1.0  0.12245414111282629  0.21450469559382507  0.2777734573406356  1.0000
  H   H31       1.0  0.6224541414390666  0.2854953043347044  0.7777734579752591  1.0000
  H   H32       1.0  0.8775458582323388  0.7854953042632338  0.7222265424956664  1.0000
  H   H33       1.0  0.6129468810397373  0.03705268080024751  0.2037385668944756  1.0000
  H   H34       1.0  0.8870531192105833  0.5370526807287769  0.2962614333958511  1.0000
  H   H35       1.0  0.3870531196176447  0.9629473199187042  0.796261433347792  1.0000
  H   H36       1.0  0.11294688013458178  0.4629473191282819  0.7037385664404509  1.0000
  H   H37       1.0  0.6140674369325981  0.38464096812308  0.2448601887888593  1.0000
  H   H38       1.0  0.8859325633177224  0.8846409680516093  0.25513981150146736  1.0000
  H   H39       1.0  0.3859325637247839  0.6153590325958715  0.7551398114534082  1.0000
  H   H40       1.0  0.1140674360274426  0.1153590326673422  0.7448601883348347  1.0000
  H   H41       1.0  0.8171603127522403  0.10499517564371728  0.2944870080754939  1.0000
  H   H42       1.0  0.6828396874980803  0.6049951755722467  0.2055129922148328  1.0000
  H   H43       1.0  0.1828396879051417  0.8950048242133416  0.7055129921667737  1.0000
  H   H44       1.0  0.3171603131593017  0.39500482428481215  0.7944870080274347  1.0000
  H   H45       1.0  0.8159879387893955  0.312904624774925  0.3224370532731396  1.0000
  H   H46       1.0  0.6840120601487082  0.8129046255653471  0.17756294661122157  1.0000
  H   H47       1.0  0.1840120605557696  0.6870953750821339  0.6775629465631624  1.0000
  H   H48       1.0  0.3159879391964569  0.18709537515360442  0.8224370532250803  1.0000
  C   C1        1.0  0.31437125705849167  0.9261508643207096  0.09369033580883664  1.0000
  C   C2        1.0  0.18562874326774867  0.42615086353028736  0.406309664825787  1.0000
  C   C3        1.0  0.6856287435988904  0.07384913639824205  0.9063096644334309  1.0000
  C   C4        1.0  0.8143712573896333  0.5738491363267715  0.5936903354164805  1.0000
  C   C5        1.0  0.31861893372079264  0.49627391515609687  0.11052061667825579  1.0000
  C   C6        1.0  0.18138106529323086  0.9962739150846263  0.3894793835504024  1.0000
  C   C7        1.0  0.6813810656243725  0.5037260847009619  0.8894793831580463  1.0000
  C   C8        1.0  0.8186189340519342  0.0037260847724325465  0.6105206162858996  1.0000
  C   C9        1.0  0.1977532342879414  0.8213083014415974  0.054421314124072376  1.0000
  C   C10       1.0  0.30224676603829903  0.32130830065117516  0.44557868651055127  1.0000
  C   C11       1.0  0.8022467663694406  0.17869169927735426  0.9455786861181952  1.0000
  C   C12       1.0  0.6977532333068661  0.6786916992058837  0.5544213133257507  1.0000
  C   C13       1.0  0.20124023815307118  0.6001320491243349  0.062435028957190775  1.0000
  C   C14       1.0  0.29875976217807043  0.10013204919580555  0.4375649706504531  1.0000
  C   C15       1.0  0.798759761192094  0.39986795073272385  0.9375649708791113  1.0000
  C   C16       1.0  0.7012402384793116  0.8998679506612532  0.5624350295918145  1.0000
  C   C17       1.0  0.30603170365675547  0.7115512562347144  0.10202974234767322  1.0000
  C   C18       1.0  0.19396829666948495  0.211551256306185  0.39797025828695043  1.0000
  C   C19       1.0  0.6939682956884097  0.2884487436223444  0.8979702574886288  1.0000
  C   C20       1.0  0.806031703987897  0.7884487435508738  0.602029741955317  1.0000
  C   C21       1.0  0.5963314971770131  0.2106590628485812  0.22345412998465425  1.0000
  C   C22       1.0  0.9036685030733076  0.7106590627771106  0.2765458703056724  1.0000
  C   C23       1.0  0.40366850216815203  0.7893409370084776  0.7765458698516479  1.0000
  C   C24       1.0  0.09633149758407447  0.2893409370799482  0.7234541299365952  1.0000
  N   N1        1.0  0.6844323247028986  0.111142753285146  0.24229516784968785  1.0000
  N   N2        1.0  0.815567675547422  0.6111427532136754  0.2577048324406388  1.0000
  N   N3        1.0  0.31556767464226654  0.8888572465719128  0.7577048319866141  1.0000
  N   N4        1.0  0.18443232510995994  0.38885724664338345  0.7422951678016287  1.0000
  N   N5        1.0  0.6825361875527023  0.3087990417269373  0.27722431578053885  1.0000
  N   N6        1.0  0.8174638113903027  0.8087990416554667  0.22277568307684248  1.0000
  N   N7        1.0  0.317463811797364  0.6912009581301215  0.7227756830287834  1.0000
  N   N8        1.0  0.18253618795486246  0.19120095820159216  0.7772243167594596  1.0000
  O   O1        1.0  0.23088779063522505  0.02620895895153814  0.0722888278776323  1.0000
  O   O2        1.0  0.2691122096910154  0.5262089588800676  0.42771117275699133  1.0000
  O   O3        1.0  0.769112210022157  0.9737910417674134  0.9277111723646352  1.0000
  O   O4        1.0  0.7308877896541498  0.47379104097699126  0.5722888270793106  1.0000
  O   O5        1.0  0.2349100678733515  0.39643788992243967  0.09446816118815696  1.0000
  O   O6        1.0  0.2650899311406719  0.8964378898509692  0.40553183904050116  1.0000
  O   O7        1.0  0.7650899314718137  0.6035621099346191  0.9055318386481451  1.0000
  O   O8        1.0  0.7349100682044931  0.10356211000608972  0.5944681607958008  1.0000
  O   O9        1.0  0.4768589028951897  0.9179416236931507  0.14285023851506215  1.0000
  O   O10       1.0  0.023141097431050733  0.4179416237646213  0.3571497621195615  1.0000
  O   O11       1.0  0.5231410964499755  0.08205837616390814  0.8571497613212398  1.0000
  O   O12       1.0  0.9768589032263313  0.5820583760924376  0.642850238122706  1.0000
  O   O13       1.0  0.4809639013748249  0.5040041675035041  0.16063197920644665  1.0000
  O   O14       1.0  0.019036097639198505  0.004004167574974582  0.3393680210222115  1.0000
  O   O15       1.0  0.5190360979703402  0.4959958323535549  0.8393680206298553  1.0000
  O   O16       1.0  0.9809639017059666  0.9959958322820842  0.6606319788140905  1.0000
  O   O17       1.0  0.4279706205420606  0.2119038609420785  0.15453639997380478  1.0000
  O   O18       1.0  0.07202937847196289  0.7119038608706079  0.34546360025485334  1.0000
  O   O19       1.0  0.5720293788031044  0.7880961389149803  0.8454635998624973  1.0000
  O   O20       1.0  0.9279706208732021  0.2880961389864509  0.6545363995814486  1.0000
