data_image0
_chemical_formula_structural       H34C28N2O4S2Cl2
_chemical_formula_sum              "H34 C28 N2 O4 S2 Cl2"
_cell_length_a       5.645772024435122
_cell_length_b       8.211473831835223
_cell_length_c       15.884643487179952
_cell_angle_alpha    84.14564316356153
_cell_angle_beta     81.25331005416862
_cell_angle_gamma    77.62150921895334

_space_group_name_H-M_alt    "P 1"
_space_group_IT_number       1

loop_
  _space_group_symop_operation_xyz
  'x, y, z'

loop_
  _atom_site_type_symbol
  _atom_site_label
  _atom_site_symmetry_multiplicity
  _atom_site_fract_x
  _atom_site_fract_y
  _atom_site_fract_z
  _atom_site_occupancy
  H   H1        1.0  0.45814897466595256  0.5287480655653531  0.11583817617762417  1.0000
  H   H2        1.0  0.5418510258871663  0.471251933700756  0.8841618237858415  1.0000
  H   H3        1.0  0.2686817024280745  0.6959511504469029  0.17603547643863776  1.0000
  H   H4        1.0  0.7313182981250442  0.3040488488192061  0.823964523524828  1.0000
  H   H5        1.0  0.5955521098504077  0.6834712656718712  0.15438277914245643  1.0000
  H   H6        1.0  0.4044478903261008  0.316528734841803  0.8456172208149907  1.0000
  H   H7        1.0  0.09407075941454311  0.7959576317442604  0.9478085748999172  1.0000
  H   H8        1.0  0.9059292411385759  0.20404236752184876  0.052191425063548326  1.0000
  H   H9        1.0  0.9828079593064283  0.7736361641976619  0.059637229425268674  1.0000
  H   H10       1.0  0.01719204087008032  0.22636383631601226  0.9403627705321785  1.0000
  H   H11       1.0  0.16780180058974126  0.5931061788159044  0.006555190864681213  1.0000
  H   H12       1.0  0.832198199346141  0.4068938216196293  0.9934448097313294  1.0000
  H   H13       1.0  0.32772246131904503  0.18906512241265666  0.1175703432587543  1.0000
  H   H14       1.0  0.6722775388574636  0.8109348781010176  0.8824296566986929  1.0000
  H   H15       1.0  0.15815846451863982  0.06807638454203613  0.18784366821720205  1.0000
  H   H16       1.0  0.8418415338833874  0.9319236159781715  0.8121563317431741  1.0000
  H   H17       1.0  0.46426666647310816  0.06320135896301952  0.19481201905483342  1.0000
  H   H18       1.0  0.5357333340800107  0.9367986403030897  0.8051879809086323  1.0000
  H   H19       1.0  0.5624457794840637  0.22126805742075  0.29167625993693963  1.0000
  H   H20       1.0  0.437554220692445  0.7787319430929243  0.7083237400205075  1.0000
  H   H21       1.0  0.43342961831641263  0.45164169488635686  0.3897289039252394  1.0000
  H   H22       1.0  0.5665703822367063  0.5483583043797521  0.6102710960382264  1.0000
  H   H23       1.0  0.9684284399705732  0.7318593761106663  0.5578974372723635  1.0000
  H   H24       1.0  0.03157155996530913  0.2681406243248673  0.44210256332364717  1.0000
  H   H25       1.0  0.2093716456748994  0.907910333864047  0.6083603304856796  1.0000
  H   H26       1.0  0.7906283548782194  0.09208966540206222  0.39163966947778606  1.0000
  H   H27       1.0  0.8710265750183634  0.3578808256922943  0.19441318400740915  1.0000
  H   H28       1.0  0.12897342515814508  0.6421191748213799  0.805586815950038  1.0000
  H   H29       1.0  0.7440294152902266  0.5944791808082176  0.2906811605716276  1.0000
  H   H30       1.0  0.255970584886282  0.40552081970545667  0.7093188393858194  1.0000
  H   H31       1.0  0.34979224776168466  0.781491429030969  0.30407403914279596  1.0000
  H   H32       1.0  0.6502077524148239  0.21850857148270514  0.6959259608146512  1.0000
  H   H33       1.0  0.6033556857038475  0.9476280989090566  0.35345757362596814  1.0000
  H   H34       1.0  0.39664431484927154  0.05237190035705242  0.6465424263374976  1.0000
  C   C1        1.0  0.4347054328022773  0.6591891925476104  0.1307795206305711  1.0000
  C   C2        1.0  0.5652945673742313  0.3408108079660637  0.869220479326876  1.0000
  C   C3        1.0  0.13175122600100445  0.7293133110642831  0.009263808928686914  1.0000
  C   C4        1.0  0.8682487745521145  0.270686688201826  0.9907361910347786  1.0000
  C   C5        1.0  0.22308895701024686  0.27573680423731245  0.23869358252427084  1.0000
  C   C6        1.0  0.7769110431662617  0.7242631962763617  0.7613064174331763  1.0000
  C   C7        1.0  0.38321310107342466  0.3032321150158265  0.2918002105624273  1.0000
  C   C8        1.0  0.6167868994796943  0.6967678842502827  0.7081997894010383  1.0000
  C   C9        1.0  0.3124048782785763  0.4336480746865853  0.3457512399882389  1.0000
  C   C10       1.0  0.6875951218979325  0.5663519258270889  0.6542487599692081  1.0000
  C   C11       1.0  0.0802747654157721  0.5366938165827695  0.34521715233505273  1.0000
  C   C12       1.0  0.9197252351373467  0.46330618268333973  0.6547828476284129  1.0000
  C   C13       1.0  0.14597278445385986  0.744349009595777  0.4285334346302692  1.0000
  C   C14       1.0  0.8540272160992591  0.255650989670332  0.5714665653331964  1.0000
  C   C15       1.0  0.11010417067368554  0.7788563635324443  0.5140984628387689  1.0000
  C   C16       1.0  0.8898958295028229  0.2211436369812301  0.48590153711867823  1.0000
  C   C17       1.0  0.2490100700402306  0.8786713043791196  0.5417043333613024  1.0000
  C   C18       1.0  0.7509899305128882  0.12132869488698955  0.45829566660216314  1.0000
  C   C19       1.0  0.4282884226855961  0.9452475247048501  0.485540505921474  1.0000
  C   C20       1.0  0.5717115774909126  0.054752475808824176  0.514459494035973  1.0000
  C   C21       1.0  0.9933795770978462  0.3799206909841381  0.23701847688315583  1.0000
  C   C22       1.0  0.006620421680791522  0.6200793082885043  0.762981523083239  1.0000
  C   C23       1.0  0.9221063853398823  0.5112366542302681  0.29019661268623026  1.0000
  C   C24       1.0  0.07789361521323647  0.488763345035841  0.7098033872772355  1.0000
  C   C25       1.0  0.3225935252677167  0.8077711096116312  0.371088694441632  1.0000
  C   C26       1.0  0.6774064749087919  0.19222889090204295  0.6289113055158151  1.0000
  C   C27       1.0  0.46297904350265146  0.9049923980313285  0.399896196390257  1.0000
  C   C28       1.0  0.5370209548993762  0.09500760248887916  0.6001038035701193  1.0000
  N   N1        1.0  0.2960891971594342  0.13877649882806944  0.18270962076413058  1.0000
  N   N2        1.0  0.7039108030170744  0.8612235016856047  0.8172903791933165  1.0000
  O   O1        1.0  0.6121255355484271  0.7062779019079998  0.9692112559876411  1.0000
  O   O2        1.0  0.38787446462808156  0.29372209860567433  0.030788743969806017  1.0000
  O   O3        1.0  0.9882988088933079  0.6573307824657243  0.4020536877504276  1.0000
  O   O4        1.0  0.011701191283200822  0.34266921804794986  0.5979463122070194  1.0000
  S   S1        1.0  0.40008154884841524  0.7882525851189315  0.03352526860202559  1.0000
  S   S2        1.0  0.5999184513280934  0.2117474153947428  0.9664747313554214  1.0000
  Cl  Cl1       1.0  0.15254966795097585  0.036036493743634046  0.8086543301013506  1.0000
  Cl  Cl2       1.0  0.8474503326021431  0.963963505522475  0.191345669862115  1.0000
