data_image0
_chemical_formula_structural       H24C52N16F16I4
_chemical_formula_sum              "H24 C52 N16 F16 I4"
_cell_length_a       7.6074511471327995
_cell_length_b       12.685748180873132
_cell_length_c       15.468219053906896
_cell_angle_alpha    66.8667853657316
_cell_angle_beta     88.58689304513575
_cell_angle_gamma    81.39976213019578

_space_group_name_H-M_alt    "P 1"
_space_group_IT_number       1

loop_
  _space_group_symop_operation_xyz
  'x, y, z'

loop_
  _atom_site_type_symbol
  _atom_site_label
  _atom_site_symmetry_multiplicity
  _atom_site_fract_x
  _atom_site_fract_y
  _atom_site_fract_z
  _atom_site_occupancy
  H   H1        1.0  0.1661684118669012  0.25208051856241964  0.9542139774443155  1.0000
  H   H2        1.0  0.8338315874838967  0.7479194820864619  0.045786022291817934  1.0000
  H   H3        1.0  0.43714066052503514  0.025208055894376233  0.2100970422623222  1.0000
  H   H4        1.0  0.5628593403370757  0.9747919439534595  0.7899029574782773  1.0000
  H   H5        1.0  0.32227320534353066  0.2574540055720376  0.09668441674217072  1.0000
  H   H6        1.0  0.677726794251081  0.7425459939405462  0.9033155837011893  1.0000
  H   H7        1.0  0.2594516717093318  0.8508404439752325  0.018205382254321147  1.0000
  H   H8        1.0  0.7405483278378207  0.14915955587460128  0.9817946174855411  1.0000
  H   H9        1.0  0.046105393974096125  0.946476139739295  0.7498749729385612  1.0000
  H   H10       1.0  0.9538946054241609  0.05352386057233646  0.25012502750106985  1.0000
  H   H11       1.0  0.017273227943442947  0.15724572154119987  0.7243382327205333  1.0000
  H   H12       1.0  0.982726772918668  0.8427542783066359  0.27566176702006623  1.0000
  H   H13       1.0  0.10368306402507427  0.2852168975811367  0.7907007947619112  1.0000
  H   H14       1.0  0.8963169355220779  0.7147831022686971  0.20929920497795107  1.0000
  H   H15       1.0  0.09481338054055849  0.5685444301817764  0.5264759980390545  1.0000
  H   H16       1.0  0.9051866188102394  0.4314555704671051  0.4735240016970789  1.0000
  H   H17       1.0  0.21491071101758724  0.33325180501048957  0.6232452836439686  1.0000
  H   H18       1.0  0.7850892883806697  0.6667481953011418  0.3767547167956625  1.0000
  H   H19       1.0  0.7506326699060765  0.6374413415428963  0.7620814989631028  1.0000
  H   H20       1.0  0.24936732968853512  0.36255865796968745  0.2379185014802572  1.0000
  H   H21       1.0  0.6748222789205167  0.4622268980057063  0.046868000913604206  1.0000
  H   H22       1.0  0.32517772062663575  0.5377731018441274  0.9531319988262581  1.0000
  H   H23       1.0  0.9087738130262365  0.2973306286208269  0.05151429936037805  1.0000
  H   H24       1.0  0.09122618763951977  0.7026693720260565  0.9484857003764926  1.0000
  C   C1        1.0  0.25395411796656686  0.06910004429673461  0.01209677354817992  1.0000
  C   C2        1.0  0.7460458827466488  0.9308999560128985  0.9879032268921885  1.0000
  C   C3        1.0  0.37115286971006656  0.06279003848549812  0.14097806970261004  1.0000
  C   C4        1.0  0.628847129884545  0.9372099610270858  0.85902193074075  1.0000
  C   C5        1.0  0.31363157627002514  0.17857727106876173  0.08606035524217995  1.0000
  C   C6        1.0  0.6863684230807727  0.82142272958012  0.9139396444939535  1.0000
  C   C7        1.0  0.19461941242216255  0.03730337511953587  0.9385461975154253  1.0000
  C   C8        1.0  0.8053805884874076  0.9626966243910496  0.06145380292867196  1.0000
  C   C9        1.0  0.20661214365071595  0.9198840690233347  0.9518661821957228  1.0000
  C   C10       1.0  0.7933878558964366  0.08011593082649898  0.048133817544139465  1.0000
  C   C11       1.0  0.08878156068563756  0.9725602360128845  0.8041176313591599  1.0000
  C   C12       1.0  0.9112184386651603  0.027439764635996948  0.1958823683769735  1.0000
  C   C13       1.0  0.07412123974455315  0.08896046941914855  0.7903133996980032  1.0000
  C   C14       1.0  0.9258787598025993  0.9110395304306852  0.20968660004185907  1.0000
  C   C15       1.0  0.9924050071542134  0.46552655056115694  0.7426774238252344  1.0000
  C   C16       1.0  0.007594992440398262  0.5344734489514267  0.2573225766181256  1.0000
  C   C17       1.0  0.07746982471885105  0.5131574042007704  0.5990950862245895  1.0000
  C   C18       1.0  0.9225301746319466  0.48684259644811123  0.4009049135115439  1.0000
  C   C19       1.0  0.13844753031317145  0.39598061040697713  0.6463466500734039  1.0000
  C   C20       1.0  0.8615524690376264  0.6040193902419043  0.3536533496627296  1.0000
  C   C21       1.0  0.9124551952860488  0.4675910966000109  0.8281478312945277  1.0000
  C   C22       1.0  0.08754480406474889  0.5324089040488706  0.1718521684416058  1.0000
  C   C23       1.0  0.7858030138365745  0.5611979532368362  0.8271989779157896  1.0000
  C   C24       1.0  0.21419698702553633  0.4388020466109995  0.17280102182480991  1.0000
  C   C25       1.0  0.7457694662479268  0.46549809404194004  0.9840563492864133  1.0000
  C   C26       1.0  0.2542305346141839  0.5345019058058958  0.015943650454186137  1.0000
  C   C27       1.0  0.875817914471019  0.37419388025555184  0.9864935484123412  1.0000
  C   C28       1.0  0.12418208619473735  0.6258061203913317  0.01350645132452955  1.0000
  C   C29       1.0  0.4775190546746436  0.5804769266613995  0.2690946470679312  1.0000
  C   C30       1.0  0.5224809449199681  0.4195230728511842  0.730905353375429  1.0000
  C   C31       1.0  0.5856687642156896  0.5156696499964863  0.22802696658865487  1.0000
  C   C32       1.0  0.4143312353314629  0.4843303498533474  0.7719730331512075  1.0000
  C   C33       1.0  0.6374875347392198  0.3967571747542503  0.27491312751652747  1.0000
  C   C34       1.0  0.3625124648553918  0.6032428247583335  0.7250868729268326  1.0000
  C   C35       1.0  0.5809821162277443  0.3358010936849683  0.36561507862763465  1.0000
  C   C36       1.0  0.419017883319408  0.6641989061648654  0.6343849211122277  1.0000
  C   C37       1.0  0.47304164949036787  0.40186950863312154  0.4066835580970349  1.0000
  C   C38       1.0  0.5269583511753884  0.598130492013762  0.5933164416398357  1.0000
  C   C39       1.0  0.4222406914411992  0.5208629463186493  0.3593957446799759  1.0000
  C   C40       1.0  0.577759309468371  0.4791370531919363  0.6406042557641214  1.0000
  C   C41       1.0  0.7598166683977386  0.9665556474880234  0.5097505691497306  1.0000
  C   C42       1.0  0.2401833324643723  0.03344435235981217  0.4902494305908689  1.0000
  C   C43       1.0  0.7721373163732816  0.043934238746475895  0.5520297877696604  1.0000
  C   C44       1.0  0.22786268317387068  0.956065761103358  0.4479702119702019  1.0000
  C   C45       1.0  0.7141757148928677  0.16232775925213386  0.5062361839110974  1.0000
  C   C46       1.0  0.2858242847017438  0.83767224026045  0.49376381653226276  1.0000
  C   C47       1.0  0.6360882629817854  0.20997173074246145  0.41535536386203037  1.0000
  C   C48       1.0  0.3639117366128261  0.7900282687701221  0.5846446365813297  1.0000
  C   C49       1.0  0.6197470594494798  0.13139493690114457  0.3736708401604307  1.0000
  C   C50       1.0  0.3802529400976725  0.8686050629486891  0.6263291595794316  1.0000
  C   C51       1.0  0.681083798286318  0.013108018842572965  0.41945186141966134  1.0000
  C   C52       1.0  0.31891620106447977  0.9868919818063087  0.580548138316472  1.0000
  N   N1        1.0  0.24039418282206304  0.18064244050366554  0.005333144714068517  1.0000
  N   N2        1.0  0.7596058167725486  0.8193575590089182  0.9946668557292915  1.0000
  N   N3        1.0  0.33350732316360193  0.9955874650521235  0.09491703253741038  1.0000
  N   N4        1.0  0.6664926775021542  0.004412535594760027  0.9050829671994602  1.0000
  N   N5        1.0  0.12735119852427126  0.1222891805098668  0.8563163849033347  1.0000
  N   N6        1.0  0.8726488023378394  0.8777108193379689  0.14368361483726483  1.0000
  N   N7        1.0  0.15496436933683133  0.8879144519880201  0.88537248874572  1.0000
  N   N8        1.0  0.845035630210321  0.1120855478618139  0.11462751099414212  1.0000
  N   N9        1.0  0.08389424135803449  0.3675481858554428  0.7367210702851212  1.0000
  N   N10       1.0  0.9161057580402227  0.6324518144561886  0.2632789301545099  1.0000
  N   N11       1.0  0.9865595741262961  0.5554051381380827  0.6591440426645934  1.0000
  N   N12       1.0  0.013440426735814743  0.44459486170975304  0.3408559570760061  1.0000
  N   N13       1.0  0.9597692173659548  0.3746551752927498  0.9092031932790803  1.0000
  N   N14       1.0  0.04023078218119762  0.6253448245570841  0.09079680646078196  1.0000
  N   N15       1.0  0.7028620360347803  0.5602170951022167  0.9045057799311325  1.0000
  N   N16       1.0  0.29713796336347686  0.4397829052094146  0.09549422050849872  1.0000
  F   F1        1.0  0.6444764872101112  0.568883901257253  0.14009953190015945  1.0000
  F   F2        1.0  0.35552351369945906  0.43111609825333264  0.8599004685439379  1.0000
  F   F3        1.0  0.7483424059435081  0.34027581134513984  0.23189865786545488  1.0000
  F   F4        1.0  0.25165759496606205  0.6597241881654459  0.7681013425786424  1.0000
  F   F5        1.0  0.41241788063136914  0.34999174520290527  0.4939458923048188  1.0000
  F   F6        1.0  0.5875821189157833  0.6500082546469286  0.5060541074350435  1.0000
  F   F7        1.0  0.3155681524707737  0.5782474654633488  0.40315883931826074  1.0000
  F   F8        1.0  0.6844318470763787  0.42175253438648497  0.5968411604216016  1.0000
  F   F9        1.0  0.8466014873304626  0.005101907269954558  0.6398400186117587  1.0000
  F   F10       1.0  0.15339851206779434  0.9948980930416769  0.3601599818278724  1.0000
  F   F11       1.0  0.7428946126592864  0.23191472766427443  0.5502021378975849  1.0000
  F   F12       1.0  0.25710538805392913  0.768085272645359  0.44979786254278353  1.0000
  F   F13       1.0  0.5380905586527233  0.1696902859610592  0.28764937247833594  1.0000
  F   F14       1.0  0.4619094408944292  0.8303097138887745  0.7123506272615264  1.0000
  F   F15       1.0  0.6589210945332123  0.9424382656140814  0.3748575246058198  1.0000
  F   F16       1.0  0.341078906132544  0.05756173503280201  0.6251424751310509  1.0000
  I   I1        1.0  0.4082551207194824  0.7616572431805272  0.19600117600958256  1.0000
  I   I2        1.0  0.5917448786313154  0.2383427574683543  0.8039988237265508  1.0000
  I   I3        1.0  0.859647904702395  0.78792403367683  0.5802216330772533  1.0000
  I   I4        1.0  0.14035209620717504  0.21207596583375563  0.41977836736684404  1.0000
