data_image0
_chemical_formula_structural       H18C24N2O2Cl8
_chemical_formula_sum              "H18 C24 N2 O2 Cl8"
_cell_length_a       6.974062997649604
_cell_length_b       9.358489106472554
_cell_length_c       10.81619176731481
_cell_angle_alpha    82.75966275513738
_cell_angle_beta     78.77120559192286
_cell_angle_gamma    76.74183758853826

_space_group_name_H-M_alt    "P 1"
_space_group_IT_number       1

loop_
  _space_group_symop_operation_xyz
  'x, y, z'

loop_
  _atom_site_type_symbol
  _atom_site_label
  _atom_site_symmetry_multiplicity
  _atom_site_fract_x
  _atom_site_fract_y
  _atom_site_fract_z
  _atom_site_occupancy
  H   H1        1.0  0.9826946807002489  0.340720843696264  0.5559521328947619  1.0000
  H   H2        1.0  0.01730531849604328  0.659279155823596  0.44404786698830595  1.0000
  H   H3        1.0  0.08757408331258787  0.12844599002671925  0.6861040988016488  1.0000
  H   H4        1.0  0.9124259173182871  0.8715540094936498  0.31389590107856596  1.0000
  H   H5        1.0  0.2379669430675003  0.15891144139047864  0.2780791145845876  1.0000
  H   H6        1.0  0.7620330575633747  0.8410885581298904  0.7219208852956271  1.0000
  H   H7        1.0  0.7242270187064368  0.38218992318008604  0.7141661896523408  1.0000
  H   H8        1.0  0.2757729819244382  0.6178100763402828  0.28583381022787396  1.0000
  H   H9        1.0  0.829449866205883  0.5254343758284  0.6479631350586019  1.0000
  H   H10       1.0  0.17055013442499206  0.474565623691969  0.35203686482161284  1.0000
  H   H11       1.0  0.12868173704673927  0.5691138469390598  0.6999884485460903  1.0000
  H   H12       1.0  0.8713182621495531  0.4308861525808001  0.30001155133697743  1.0000
  H   H13       1.0  0.8477238511500137  0.21606791362034752  0.8877611160757964  1.0000
  H   H14       1.0  0.15227614770788997  0.7839320869972303  0.11223888380818307  1.0000
  H   H15       1.0  0.35429655030796287  0.5217362018228225  0.8589830831990554  1.0000
  H   H16       1.0  0.6457034503229122  0.47826379769754646  0.1410169166811594  1.0000
  H   H17       1.0  0.07874822661564164  0.1661173184686065  0.04352783736735959  1.0000
  H   H18       1.0  0.9212517725806507  0.8338826810512535  0.9564721625157082  1.0000
  C   C1        1.0  0.1551464373906786  0.07911757889076948  0.5977520301843198  1.0000
  C   C2        1.0  0.8448535629880436  0.9208824205346314  0.4022479706419161  1.0000
  C   C3        1.0  0.33765371944071193  0.9477055894090102  0.37527300813179226  1.0000
  C   C4        1.0  0.6623462808517744  0.05229441120907671  0.6247269917493343  1.0000
  C   C5        1.0  0.2416356871308027  0.09529762776672152  0.3692189221976583  1.0000
  C   C6        1.0  0.7583643120654896  0.9047023717531383  0.6307810776854095  1.0000
  C   C7        1.0  0.3451345470673152  0.861930604783745  0.49149197718493526  1.0000
  C   C8        1.0  0.654865451876824  0.13806939464114687  0.5085080236441537  1.0000
  C   C9        1.0  0.14957408160317656  0.16193602727268172  0.48071737529951974  1.0000
  C   C10       1.0  0.85042591868931  0.838063973345405  0.5192826245816068  1.0000
  C   C11       1.0  0.25132258801320473  0.9312461021398228  0.6019005434071547  1.0000
  C   C12       1.0  0.7486774108446986  0.06875389847775502  0.3980994564768248  1.0000
  C   C13       1.0  0.22940700427469227  0.3410773377458006  0.9598627052251862  1.0000
  C   C14       1.0  0.7705929957656412  0.6589226627773179  0.0401372956019615  1.0000
  C   C15       1.0  0.11720788676997171  0.48095428406860663  0.775322471925685  1.0000
  C   C16       1.0  0.8827921121741675  0.5190457153562852  0.22467752890340373  1.0000
  C   C17       1.0  0.9737557295054385  0.39549673101814864  0.7825187298948503  1.0000
  C   C18       1.0  0.02624426943870075  0.6045032684067433  0.21748127093423852  1.0000
  C   C19       1.0  0.9599533849196179  0.2824300963137866  0.8800964230088821  1.0000
  C   C20       1.0  0.04004661427667439  0.7175699032060733  0.11990357687418561  1.0000
  C   C21       1.0  0.24384695318830024  0.45470093834356695  0.8641178880508692  1.0000
  C   C22       1.0  0.7561530474425748  0.545299061176802  0.1358821118293454  1.0000
  C   C23       1.0  0.08838433467868609  0.25456389233834087  0.9683836921670066  1.0000
  C   C24       1.0  0.911615665952189  0.7454361071820281  0.03161630771320821  1.0000
  N   N1        1.0  0.85450118370316  0.4185625847675436  0.6870001577839332  1.0000
  N   N2        1.0  0.14549881549313248  0.5814374147523161  0.31299984209913456  1.0000
  O   O1        1.0  0.05812165583911206  0.30591832258361296  0.470184303770667  1.0000
  O   O2        1.0  0.9418783442012215  0.6940816779395058  0.5298156970564807  1.0000
  Cl  Cl1       1.0  0.46519950315324027  0.6796563779138813  0.4976479175082548  1.0000
  Cl  Cl2       1.0  0.5348004974776347  0.32034362160648766  0.50235208237196  1.0000
  Cl  Cl3       1.0  0.2517084956553203  0.8334479787690868  0.7480111266945016  1.0000
  Cl  Cl4       1.0  0.7482915049755549  0.166552020751282  0.25198887318571306  1.0000
  Cl  Cl5       1.0  0.44958071387995574  0.8696064547104596  0.23568317590023904  1.0000
  Cl  Cl6       1.0  0.5504192867509193  0.1303935448099094  0.7643168239799757  1.0000
  Cl  Cl7       1.0  0.39301201985205986  0.30450455291901685  0.06811691267478134  1.0000
  Cl  Cl8       1.0  0.6069879804404265  0.6954954476990699  0.9318830872063452  1.0000
