data_image0
_chemical_formula_structural       H32C48N4O4Cl20
_chemical_formula_sum              "H32 C48 N4 O4 Cl20"
_cell_length_a       7.023807079741574
_cell_length_b       15.32568711697133
_cell_length_c       13.134843098753647
_cell_angle_alpha    90.0
_cell_angle_beta     98.68618064766862
_cell_angle_gamma    90.0

_space_group_name_H-M_alt    "P 1"
_space_group_IT_number       1

loop_
  _space_group_symop_operation_xyz
  'x, y, z'

loop_
  _atom_site_type_symbol
  _atom_site_label
  _atom_site_symmetry_multiplicity
  _atom_site_fract_x
  _atom_site_fract_y
  _atom_site_fract_z
  _atom_site_occupancy
  H   H1        1.0  0.20338929444353318  0.643887185265082  0.06081452516488736  1.0000
  H   H2        1.0  0.7966107064988667  0.1438871851662718  0.9391854749151917  1.0000
  H   H3        1.0  0.06790858645257604  0.6748683880246117  0.1494329836610649  1.0000
  H   H4        1.0  0.9320914128454194  0.17486838857830073  0.8505670156508741  1.0000
  H   H5        1.0  0.7644716052261715  0.5844288841106161  0.4277779602789919  1.0000
  H   H6        1.0  0.23552839571622838  0.08442888466430516  0.5722220398010871  1.0000
  H   H7        1.0  0.4677005231360542  0.6566673228540261  0.4701443956354826  1.0000
  H   H8        1.0  0.5322994763831931  0.1566673227552158  0.529855604446621  1.0000
  H   H9        1.0  0.5243547037452976  0.5917124988123927  0.10501453696428982  1.0000
  H   H10       1.0  0.47564529719710225  0.09171249871358245  0.8949854631157892  1.0000
  H   H11       1.0  0.8503998045765129  0.309920358790324  0.10391939128315046  1.0000
  H   H12       1.0  0.1496001949427344  0.8099203588891343  0.8960806087989532  1.0000
  H   H13       1.0  0.9649364380727904  0.28386060258156437  0.22263430590232747  1.0000
  H   H14       1.0  0.03506356286960952  0.7838606026803746  0.7773656941777515  1.0000
  H   H15       1.0  0.5123176468828216  0.3479390861434859  0.07139316786606896  1.0000
  H   H16       1.0  0.4876823526364258  0.8479390862422962  0.9286068322160347  1.0000
  H   H17       1.0  0.25575463709157376  0.41872626597561546  0.3392692147683084  1.0000
  H   H18       1.0  0.7442453624276736  0.9187262660744258  0.6607307853137953  1.0000
  H   H19       1.0  0.5483168267380251  0.364018898299321  0.4521202819793189  1.0000
  H   H20       1.0  0.45168317255997037  0.8640188983981313  0.5478797173326201  1.0000
  H   H21       1.0  0.21659816983183144  0.7841325578604713  0.08608163880153034  1.0000
  H   H22       1.0  0.7834018296874158  0.284132557761661  0.9139183612805732  1.0000
  H   H23       1.0  0.2526359865640139  0.849494052738618  0.24914662906975643  1.0000
  H   H24       1.0  0.7473640127339816  0.34949405263980765  0.7508533702421826  1.0000
  H   H25       1.0  0.20699079760566458  0.9961711363070731  0.9658486102669683  1.0000
  H   H26       1.0  0.7930092033367352  0.4961711362082628  0.034151389813110604  1.0000
  H   H27       1.0  0.791535492235447  0.1805051002859499  0.1354418632236131  1.0000
  H   H28       1.0  0.20846450728380028  0.6805051003847602  0.8645581368584906  1.0000
  H   H29       1.0  0.718085106034763  0.9580645584066747  0.05433732743682798  1.0000
  H   H30       1.0  0.2819148934844843  0.4580645583078644  0.9456626726452757  1.0000
  H   H31       1.0  0.8221659264727835  0.13949045375150987  0.30780148212473385  1.0000
  H   H32       1.0  0.17783407304646376  0.6394904538503202  0.69219851795737  1.0000
  C   C1        1.0  0.6471796812410721  0.6016296182759431  0.3670981327331675  1.0000
  C   C2        1.0  0.35282031827817517  0.10162961817713283  0.6329018673489362  1.0000
  C   C3        1.0  0.33410918275534185  0.6656515484191902  0.31208231684638627  1.0000
  C   C4        1.0  0.6658908167639054  0.16565154832037993  0.6879176832357176  1.0000
  C   C5        1.0  0.34657464624591355  0.6483752319983233  0.20804153298622477  1.0000
  C   C6        1.0  0.6534253546964863  0.14837523189951302  0.7919584670938543  1.0000
  C   C7        1.0  0.4821491544081497  0.642458259447084  0.39047413619643695  1.0000
  C   C8        1.0  0.5178508465342502  0.14245825934827377  0.6095258638836422  1.0000
  C   C9        1.0  0.6589563674808591  0.5837695688105661  0.2641412060748669  1.0000
  C   C10       1.0  0.3410436320383882  0.08376956871175577  0.7358587940072367  1.0000
  C   C11       1.0  0.5117983379917641  0.6059110941731861  0.18499926141240974  1.0000
  C   C12       1.0  0.4882016629506358  0.10591109407437582  0.8150007386676693  1.0000
  C   C13       1.0  0.5204456063571546  0.35137559633699483  0.15474660408572452  1.0000
  C   C14       1.0  0.4795543945852453  0.8513755964358051  0.8452533959943546  1.0000
  C   C15       1.0  0.37474837568200176  0.3910014875198767  0.30569017853980934  1.0000
  C   C16       1.0  0.6252516238372455  0.8910014876186869  0.6943098215422945  1.0000
  C   C17       1.0  0.6920970936791974  0.32645568787970447  0.3253192605612907  1.0000
  C   C18       1.0  0.3079029072632026  0.8264556873260154  0.6746807395187884  1.0000
  C   C19       1.0  0.685459735709002  0.3206562558985063  0.21799736057677496  1.0000
  C   C20       1.0  0.31454026358899345  0.8206562553448173  0.782002638735164  1.0000
  C   C21       1.0  0.37017492009507413  0.3865709651242571  0.1992502626162405  1.0000
  C   C22       1.0  0.6298250794241731  0.8865709652230673  0.8007497374658632  1.0000
  C   C23       1.0  0.5385947928142272  0.3603585253860649  0.36871238859717126  1.0000
  C   C24       1.0  0.4614052081281727  0.8603585254848751  0.6312876114829078  1.0000
  C   C25       1.0  0.26769554865975675  0.07033521379973352  0.21449719897060068  1.0000
  C   C26       1.0  0.7323044508594905  0.5703352138985438  0.7855028011115031  1.0000
  C   C27       1.0  0.2507349553798198  0.911219495962135  0.2082017617913789  1.0000
  C   C28       1.0  0.7492650441394275  0.4112194958633247  0.7917982382907249  1.0000
  C   C29       1.0  0.2238048974995422  0.9938328737726437  0.04951301607758947  1.0000
  C   C30       1.0  0.7761951020197051  0.49383287367383355  0.9504869840045143  1.0000
  C   C31       1.0  0.2429749361470106  0.07086877486864929  0.10638547534749976  1.0000
  C   C32       1.0  0.7570250633722367  0.5708687749674595  0.893614524734604  1.0000
  C   C33       1.0  0.27048787491813486  0.9888066306155133  0.26379714034997037  1.0000
  C   C34       1.0  0.7295121246011124  0.48880663051670303  0.7362028597321334  1.0000
  C   C35       1.0  0.22809321444848277  0.9135010667480398  0.10064158543771917  1.0000
  C   C36       1.0  0.7719067850707645  0.4135010666492295  0.8993584146443845  1.0000
  C   C37       1.0  0.7369294952879895  0.9713561419060157  0.13645254564162657  1.0000
  C   C38       1.0  0.2630705042312577  0.47135614180720553  0.8635474544404771  1.0000
  C   C39       1.0  0.7578192591768449  0.9186616262320201  0.3130792184477928  1.0000
  C   C40       1.0  0.24218074176555493  0.4186616261332098  0.6869207816322862  1.0000
  C   C41       1.0  0.7913128430124444  0.0049754780596792635  0.3472336753516705  1.0000
  C   C42       1.0  0.20868715650680286  0.5049754781584895  0.6527663247304334  1.0000
  C   C43       1.0  0.7660833424740288  0.05702609307690951  0.17193507046798498  1.0000
  C   C44       1.0  0.233916658468371  0.5570260931757197  0.828064929612094  1.0000
  C   C45       1.0  0.7953865364069752  0.07370177215409697  0.2781470485839196  1.0000
  C   C46       1.0  0.2046134631122721  0.573701771600408  0.7218529514981841  1.0000
  C   C47       1.0  0.7337596253818784  0.9036581344965421  0.20631051412454746  1.0000
  C   C48       1.0  0.2662403741373689  0.40365813439773185  0.7936894859575563  1.0000
  N   N1        1.0  0.20244824222797447  0.6768975061817717  0.1286713570285354  1.0000
  N   N2        1.0  0.7975517572912727  0.17689750608296148  0.8713286430535683  1.0000
  N   N3        1.0  0.8366315124628236  0.28337335003993247  0.17424137620902017  1.0000
  N   N4        1.0  0.16336848705642368  0.7833733501387428  0.8257586238730834  1.0000
  O   O1        1.0  0.2113721533493697  0.8395040986940482  0.04294933834291391  1.0000
  O   O2        1.0  0.7886278461698777  0.3395040992477371  0.9570506617391898  1.0000
  O   O3        1.0  0.7650667645347945  0.1211618569417173  0.10069860341617108  1.0000
  O   O4        1.0  0.23493323640760547  0.6211618563880282  0.8993013966639078  1.0000
  Cl  Cl1       1.0  0.863715668794152  0.5326205101082041  0.23396236027876746  1.0000
  Cl  Cl2       1.0  0.1362843321482479  0.03262051000939375  0.7660376398013116  1.0000
  Cl  Cl3       1.0  0.13111233612749776  0.7176484353396821  0.34274058937955343  1.0000
  Cl  Cl4       1.0  0.8688876648149021  0.21764843524087196  0.6572594107005256  1.0000
  Cl  Cl5       1.0  0.17173094423939492  0.4271742349972867  0.11833869795139706  1.0000
  Cl  Cl6       1.0  0.8282690567030049  0.927174235096097  0.8816613021286819  1.0000
  Cl  Cl7       1.0  0.8999145562859294  0.2941565207218522  0.40448148170167497  1.0000
  Cl  Cl8       1.0  0.10008544443521866  0.7941565208206625  0.5955185176082394  1.0000
  Cl  Cl9       1.0  0.2369470507019901  0.16909029136646753  0.041266627003114204  1.0000
  Cl  Cl10      1.0  0.7630529488172572  0.6690902914652779  0.9587333730789895  1.0000
  Cl  Cl11      1.0  0.299660640717597  0.9831595037141582  0.39616787387569413  1.0000
  Cl  Cl12      1.0  0.7003393588016503  0.48315950361534793  0.6038321262064096  1.0000
  Cl  Cl13      1.0  0.2945095285312969  0.16565947227178732  0.2838635379801991  1.0000
  Cl  Cl14      1.0  0.7054904724111031  0.6656594723705975  0.71613646209988  1.0000
  Cl  Cl15      1.0  0.695901891700937  0.7990037586269032  0.15900794559930237  1.0000
  Cl  Cl16      1.0  0.30409810924146297  0.29900375852809297  0.8409920544807766  1.0000
  Cl  Cl17      1.0  0.8281488771608188  0.027990673874906467  0.47725775490875205  1.0000
  Cl  Cl18      1.0  0.17185112378158116  0.5279906739737168  0.522742245171327  1.0000
  Cl  Cl19      1.0  0.7385641251521131  0.834605294521225  0.3970930621062146  1.0000
  Cl  Cl20      1.0  0.26143587436713417  0.3346052944224147  0.6029069379758891  1.0000
