data_image0
_chemical_formula_structural       H36C48N4O4Cl16
_chemical_formula_sum              "H36 C48 N4 O4 Cl16"
_cell_length_a       7.738599073493701
_cell_length_b       11.82422339034446
_cell_length_c       14.866188209665804
_cell_angle_alpha    90.0
_cell_angle_beta     107.05846656170122
_cell_angle_gamma    90.0

_space_group_name_H-M_alt    "P 1"
_space_group_IT_number       1

loop_
  _space_group_symop_operation_xyz
  'x, y, z'

loop_
  _atom_site_type_symbol
  _atom_site_label
  _atom_site_symmetry_multiplicity
  _atom_site_fract_x
  _atom_site_fract_y
  _atom_site_fract_z
  _atom_site_occupancy
  H   H1        1.0  0.9308969864279543  0.9311611330847203  0.9060605034454294  1.0000
  H   H2        1.0  0.06910301447296179  0.43116113267642536  0.5939394964446554  1.0000
  H   H3        1.0  0.06910301417830911  0.06883886688614801  0.09393949633462068  1.0000
  H   H4        1.0  0.9308969861333017  0.5688388672944429  0.4060605033353949  1.0000
  H   H5        1.0  0.7771285073270062  0.8896324555733515  0.7510509978825831  1.0000
  H   H6        1.0  0.22287149227999078  0.38963245516505646  0.7489490020044716  1.0000
  H   H7        1.0  0.22287149198533818  0.1103675443975169  0.24894900189443697  1.0000
  H   H8        1.0  0.777128508717219  0.6103675448058118  0.25105099847919465  1.0000
  H   H9        1.0  0.619110809115106  0.7428588356316664  0.6383924908624975  1.0000
  H   H10       1.0  0.3808891921767563  0.242858836069093  0.8616075097312033  1.0000
  H   H11       1.0  0.38088919188210363  0.2571411643392019  0.3616075096211686  1.0000
  H   H12       1.0  0.6191108088204533  0.7571411639017753  0.138392490752463  1.0000
  H   H13       1.0  0.8447494271536798  0.49101405634310036  0.6325578056959437  1.0000
  H   H14       1.0  0.15525057245331703  0.9910140567513952  0.8674421941911111  1.0000
  H   H15       1.0  0.15525057215866447  0.508985943627768  0.36744219408107653  1.0000
  H   H16       1.0  0.8447494268590272  0.008985943219473012  0.13255780558590896  1.0000
  H   H17       1.0  0.9183154067291713  0.5803486303890012  0.5650005042778329  1.0000
  H   H18       1.0  0.08168459417174478  0.08034862998070634  0.9349994956122519  1.0000
  H   H19       1.0  0.08168459426803842  0.41965136958186705  0.43499949620583345  1.0000
  H   H20       1.0  0.9183154064345186  0.919651369990162  0.06500050416779823  1.0000
  H   H21       1.0  0.9719870074078772  0.4838670677240417  0.8033148788617035  1.0000
  H   H22       1.0  0.028012992199119662  0.9838670681323365  0.6966851210253512  1.0000
  H   H23       1.0  0.028012991904466968  0.5161329322468267  0.1966851209153165  1.0000
  H   H24       1.0  0.9719870084071439  0.016132931838531754  0.30331487875469904  1.0000
  H   H25       1.0  0.13646733137805597  0.5929960064629443  0.9447180638064496  1.0000
  H   H26       1.0  0.863532668228941  0.09299600605464936  0.5552819360806052  1.0000
  H   H27       1.0  0.8635326683252347  0.40700399350792404  0.05528193667418662  1.0000
  H   H28       1.0  0.13646733108340328  0.907003993916219  0.44471806369641503  1.0000
  H   H29       1.0  0.31541734932289983  0.8287620612785568  0.7697877933320331  1.0000
  H   H30       1.0  0.6845826515780161  0.32876206171598343  0.7302122065580516  1.0000
  H   H31       1.0  0.6845826512833635  0.17123793869231146  0.23021220644801704  1.0000
  H   H32       1.0  0.31541734941919347  0.6712379382548849  0.2697877939256146  1.0000
  H   H33       1.0  0.15030945931721337  0.7199430634024927  0.6281423237215505  1.0000
  H   H34       1.0  0.8496905406807299  0.2199430638399194  0.8718576768691203  1.0000
  H   H35       1.0  0.8496905403860772  0.2800569365683755  0.3718576767590857  1.0000
  H   H36       1.0  0.15030945902256074  0.780056936130949  0.1281423236115159  1.0000
  C   C1        1.0  0.7892498670702601  0.7896775747339789  0.874140229858595  1.0000
  C   C2        1.0  0.2107501338306558  0.28967757517140563  0.6258597700314898  1.0000
  C   C3        1.0  0.21075013353600314  0.21032242523688927  0.12585976992145517  1.0000
  C   C4        1.0  0.7892498667756076  0.7103224247994627  0.37414022974856037  1.0000
  C   C5        1.0  0.7435030119946904  0.8089376590948655  0.7769596962891655  1.0000
  C   C6        1.0  0.2564969876123066  0.30893765953229196  0.7230403035978892  1.0000
  C   C7        1.0  0.25649698731765397  0.1910623408760029  0.22304030348785459  1.0000
  C   C8        1.0  0.7435030117000377  0.6910623404385763  0.2769596961791309  1.0000
  C   C9        1.0  0.6533337068771502  0.7271474798946206  0.7136726310823744  1.0000
  C   C10       1.0  0.3466662927298467  0.22714747948632563  0.7863273688046802  1.0000
  C   C11       1.0  0.34666629243519403  0.2728525200762477  0.2863273686946456  1.0000
  C   C12       1.0  0.6533337065824976  0.7728525204845427  0.2136726309723399  1.0000
  C   C13       1.0  0.6059689417505087  0.6242949372918567  0.7454584605086697  1.0000
  C   C14       1.0  0.39403105785648823  0.12429493772928334  0.754541539378385  1.0000
  C   C15       1.0  0.3940310588557546  0.3757050626790116  0.2545415392713804  1.0000
  C   C16       1.0  0.6059689414558562  0.8757050622415851  0.24545846039863511  1.0000
  C   C17       1.0  0.6484171633761708  0.6028627601725595  0.8423250627532989  1.0000
  C   C18       1.0  0.3515828375247452  0.10286275976426457  0.6576749371367858  1.0000
  C   C19       1.0  0.35158283762103887  0.39713723979830884  0.15767493773036736  1.0000
  C   C20       1.0  0.6484171630815182  0.8971372402066038  0.3423250626432643  1.0000
  C   C21       1.0  0.7406021772205172  0.6856464963796511  0.9062767248905058  1.0000
  C   C22       1.0  0.2593978223864798  0.18564649597135632  0.5937232749965491  1.0000
  C   C23       1.0  0.2593978220918271  0.31435350359121705  0.09372327488651437  1.0000
  C   C24       1.0  0.7406021769258645  0.8143535039995119  0.4062767247804711  1.0000
  C   C25       1.0  0.047608201605518576  0.5954287844180267  0.7058697153614152  1.0000
  C   C26       1.0  0.9523917980014783  0.0954287848554533  0.7941302845256396  1.0000
  C   C27       1.0  0.9523917977068256  0.4045712155528416  0.29413028441560496  1.0000
  C   C28       1.0  0.047608202604785065  0.9045712151154149  0.2058697152544106  1.0000
  C   C29       1.0  0.047371346398031026  0.559431172063411  0.7956226329044597  1.0000
  C   C30       1.0  0.9526286535999122  0.05943117250083756  0.7043773676862112  1.0000
  C   C31       1.0  0.9526286545991787  0.4405688279074574  0.2043773675792066  1.0000
  C   C32       1.0  0.0473713461033784  0.9405688274700307  0.2956226327944251  1.0000
  C   C33       1.0  0.13897824146629262  0.6207544730585621  0.8753449682611673  1.0000
  C   C34       1.0  0.8610217581407044  0.12075447265026722  0.6246550316258874  1.0000
  C   C35       1.0  0.8610217591399708  0.3792455269123062  0.12465503151888288  1.0000
  C   C36       1.0  0.13897824117163998  0.879245527320601  0.37534496815113266  1.0000
  C   C37       1.0  0.23271774836360837  0.7183022824937152  0.8653880780386656  1.0000
  C   C38       1.0  0.7672822525373078  0.2183022829311417  0.6346119218514192  1.0000
  C   C39       1.0  0.7672822526336014  0.2816977174771532  0.13461192244500073  1.0000
  C   C40       1.0  0.23271774806895568  0.7816977170397266  0.3653880779286309  1.0000
  C   C41       1.0  0.23840101251113535  0.753933177317982  0.7767970409847574  1.0000
  C   C42       1.0  0.7615989883897806  0.2539331769096871  0.7232029589053273  1.0000
  C   C43       1.0  0.7615989880951279  0.2460668226528863  0.22320295879529264  1.0000
  C   C44       1.0  0.23840101221648274  0.7460668230611812  0.2767970408747229  1.0000
  C   C45       1.0  0.14609584108199403  0.6923157318462609  0.6973783186495214  1.0000
  C   C46       1.0  0.8539041598189219  0.1923157314379659  0.8026216812405633  1.0000
  C   C47       1.0  0.8539041595242692  0.307684268970329  0.3026216811305286  1.0000
  C   C48       1.0  0.1460958407873415  0.8076842685329023  0.19737831853948692  1.0000
  N   N1        1.0  0.9558549532583597  0.5321333158453379  0.6251843693476538  1.0000
  N   N2        1.0  0.04414504673958334  0.03213331628276446  0.874815631243017  1.0000
  N   N3        1.0  0.04414504644493077  0.46786668412553045  0.3748156311329824  1.0000
  N   N4        1.0  0.9558549529637071  0.9678666836881039  0.1251843692376192  1.0000
  O   O1        1.0  0.8780313966211024  0.8669445900667623  0.9377015972011167  1.0000
  O   O2        1.0  0.12196860298589444  0.3669445905041889  0.562298402685938  1.0000
  O   O3        1.0  0.12196860269124185  0.133055409904106  0.06229840257590344  1.0000
  O   O4        1.0  0.878031397620369  0.6330554094666794  0.4377015970941121  1.0000
  Cl  Cl1       1.0  0.8043250999486201  0.6601554996308813  0.025319592475665845  1.0000
  Cl  Cl2       1.0  0.19567490075393681  0.1601555000683079  0.47468040789796573  1.0000
  Cl  Cl3       1.0  0.19567490104858956  0.33984450033998703  0.9746804080080005  1.0000
  Cl  Cl4       1.0  0.804325100243273  0.8398444999025605  0.5253195925857005  1.0000
  Cl  Cl5       1.0  0.49856679940483434  0.5238695096929785  0.6636770599316557  1.0000
  Cl  Cl6       1.0  0.5014332018870279  0.023869510130405096  0.8363229406620452  1.0000
  Cl  Cl7       1.0  0.5014332015923754  0.4761304902778898  0.33632294055201056  1.0000
  Cl  Cl8       1.0  0.4985667991101817  0.9761304898404631  0.16367705982162103  1.0000
  Cl  Cl9       1.0  0.5943234699122609  0.4757333293105289  0.8828670164257079  1.0000
  Cl  Cl10      1.0  0.40567652969473605  0.9757333288731023  0.6171329834613468  1.0000
  Cl  Cl11      1.0  0.40567652940008336  0.5242666706603394  0.11713298335131218  1.0000
  Cl  Cl12      1.0  0.5943234696176083  0.024266671097765948  0.3828670163156733  1.0000
  Cl  Cl13      1.0  0.3423756742639902  0.7971755952866351  0.9647604612145918  1.0000
  Cl  Cl14      1.0  0.6576243253430066  0.2971755948783403  0.5352395386724628  1.0000
  Cl  Cl15      1.0  0.6576243254393003  0.20282440468423316  0.03523953926604429  1.0000
  Cl  Cl16      1.0  0.3423756739693376  0.702824405092528  0.46476046110455727  1.0000
