data_image0
_chemical_formula_structural       H18C24N2O2Cl6I2
_chemical_formula_sum              "H18 C24 N2 O2 Cl6 I2"
_cell_length_a       7.044055082934439
_cell_length_b       9.296827453523704
_cell_length_c       11.312154440311145
_cell_angle_alpha    84.2834224533146
_cell_angle_beta     79.60138348879045
_cell_angle_gamma    76.80454686698887

_space_group_name_H-M_alt    "P 1"
_space_group_IT_number       1

loop_
  _space_group_symop_operation_xyz
  'x, y, z'

loop_
  _atom_site_type_symbol
  _atom_site_label
  _atom_site_symmetry_multiplicity
  _atom_site_fract_x
  _atom_site_fract_y
  _atom_site_fract_z
  _atom_site_occupancy
  H   H1        1.0  0.7476846601555562  0.1409855726946959  0.7960210377339845  1.0000
  H   H2        1.0  0.25231533946381657  0.8590144266130151  0.20397896297178938  1.0000
  H   H3        1.0  0.5705995127548129  0.13512910761430474  0.18208872501228368  1.0000
  H   H4        1.0  0.4294004871060789  0.8648708917623265  0.8179112747930485  1.0000
  H   H5        1.0  0.47892834742578316  0.3416256262939288  0.05218611270661974  1.0000
  H   H6        1.0  0.5210716521935895  0.6583743730137823  0.9478138879991541  1.0000
  H   H7        1.0  0.6267869065783341  0.5700415535108615  0.19925391354139435  1.0000
  H   H8        1.0  0.3732130932825576  0.4299584458657696  0.8007460862639378  1.0000
  H   H9        1.0  0.843087577461777  0.5128704651895575  0.35528357427459845  1.0000
  H   H10       1.0  0.1569124221575958  0.48712953411815363  0.6447164264311754  1.0000
  H   H11       1.0  0.5427242540708481  0.16748845244783603  0.5156100020253673  1.0000
  H   H12       1.0  0.45727574579004354  0.8325115469287951  0.4843899977799649  1.0000
  H   H13       1.0  0.32165512910852584  0.2288377275950006  0.3626295602312806  1.0000
  H   H14       1.0  0.6783448721710262  0.771162271784074  0.6373704395748667  1.0000
  H   H15       1.0  0.3320288567159154  0.5352610209770003  0.13749968755643263  1.0000
  H   H16       1.0  0.6679711428085967  0.4647389795043469  0.8625003122500481  1.0000
  H   H17       1.0  0.21675814390462295  0.3971798492430923  0.19605504762527384  1.0000
  H   H18       1.0  0.783241857374929  0.6028201501359822  0.8039449521808735  1.0000
  C   C1        1.0  0.6479616498323186  0.1567181254432307  0.987172886191871  1.0000
  C   C2        1.0  0.3520383496921935  0.8432818750381166  0.012827113614609757  1.0000
  C   C3        1.0  0.7472665663309572  0.08282774504024391  0.8843738301817659  1.0000
  C   C4        1.0  0.2527334346122152  0.9171722554435467  0.11562616962552988  1.0000
  C   C5        1.0  0.8432606182370882  0.935062987821984  0.8951567397666482  1.0000
  C   C6        1.0  0.15673938128742393  0.06493701265936325  0.10484326003983244  1.0000
  C   C7        1.0  0.8424870350207042  0.8561121111839544  0.00785401208698954  1.0000
  C   C8        1.0  0.15751296484018756  0.14388788819267692  0.9921459877183427  1.0000
  C   C9        1.0  0.74032865609856  0.9322196644529795  0.10947889362729123  1.0000
  C   C10       1.0  0.25967134342595205  0.06778033602836774  0.8905211061791896  1.0000
  C   C11       1.0  0.6450728719705631  0.08048065111260352  0.10045267073364313  1.0000
  C   C12       1.0  0.3549271289726092  0.9195193493711874  0.8995473290736525  1.0000
  C   C13       1.0  0.4614628032632287  0.40207426799392043  0.26910275750121704  1.0000
  C   C14       1.0  0.5385371963561438  0.5979257313137907  0.7308972432045568  1.0000
  C   C15       1.0  0.6079690508435528  0.482120848791447  0.2687114168642757  1.0000
  C   C16       1.0  0.3920309486809592  0.5178791516899004  0.731288582942205  1.0000
  C   C17       1.0  0.7299454213029706  0.44979784890108493  0.3562771626462185  1.0000
  C   C18       1.0  0.27005457822154144  0.5502021515802623  0.6437228371602624  1.0000
  C   C19       1.0  0.7076588380575985  0.3355564043594831  0.44414666921342544  1.0000
  C   C20       1.0  0.2923411618032934  0.664443595017148  0.5558533305919068  1.0000
  C   C21       1.0  0.5609569943962848  0.2560857262397983  0.44670707602147813  1.0000
  C   C22       1.0  0.43904300512822736  0.743914274241549  0.5532929237850026  1.0000
  C   C23       1.0  0.43753193421572517  0.2900716591352342  0.3596601481777771  1.0000
  C   C24       1.0  0.5624680653087869  0.709928341346113  0.6403398516287037  1.0000
  N   N1        1.0  0.3490833072792009  0.42861102918909844  0.17439922370808036  1.0000
  N   N2        1.0  0.6509166922453112  0.5713889712922489  0.8256007760984004  1.0000
  O   O1        1.0  0.557035992061771  0.30080188032190536  0.972478277115697  1.0000
  O   O2        1.0  0.4429640088814011  0.6991981201618854  0.027521722691598857  1.0000
  Cl  Cl1       1.0  0.9640875133877503  0.8481710815306287  0.7661537165511613  1.0000
  Cl  Cl2       1.0  0.03591248765028257  0.15182891777952556  0.23384628415542769  1.0000
  Cl  Cl3       1.0  0.961600350502334  0.6734390331366111  0.020030650342569185  1.0000
  Cl  Cl4       1.0  0.03839964935855784  0.3265609662400202  0.979969349462763  1.0000
  Cl  Cl5       1.0  0.7278132820620042  0.8422117873339222  0.25081413780767386  1.0000
  Cl  Cl6       1.0  0.2721867188811681  0.15778821314986852  0.7491858619996219  1.0000
  I   I1        1.0  0.9053060617572194  0.2748711644356467  0.5688710586553991  1.0000
  I   I2        1.0  0.09469393952233264  0.7251288349434281  0.43112894115074823  1.0000
