data_image0
_chemical_formula_structural       H18C24N2O2Cl6Br2
_chemical_formula_sum              "H18 C24 N2 O2 Cl6 Br2"
_cell_length_a       6.994017862985306
_cell_length_b       9.317396322767802
_cell_length_c       11.001543827694142
_cell_angle_alpha    83.42945791988431
_cell_angle_beta     78.99569129688632
_cell_angle_gamma    76.63957539894417

_space_group_name_H-M_alt    "P 1"
_space_group_IT_number       1

loop_
  _space_group_symop_operation_xyz
  'x, y, z'

loop_
  _atom_site_type_symbol
  _atom_site_label
  _atom_site_symmetry_multiplicity
  _atom_site_fract_x
  _atom_site_fract_y
  _atom_site_fract_z
  _atom_site_occupancy
  H   H1        1.0  0.6715323574499037  0.9701028995626774  0.35632760877076186  1.0000
  H   H2        1.0  0.3284676415182767  0.029897100413623614  0.6436723911342138  1.0000
  H   H3        1.0  0.7801916626530138  0.11198688418217619  0.2930683281689126  1.0000
  H   H4        1.0  0.21980833631516633  0.888013115794125  0.7069316717360631  1.0000
  H   H5        1.0  0.4365110088045631  0.33316721470512295  0.9673688395464456  1.0000
  H   H6        1.0  0.5634889915937509  0.6668327852714042  0.03263116035715945  1.0000
  H   H7        1.0  0.37461417367181454  0.929505482613066  0.30023185946238085  1.0000
  H   H8        1.0  0.6253858267264994  0.07049451736346128  0.699768140441224  1.0000
  H   H9        1.0  0.6637206647948592  0.27880484723419974  0.12234448419307645  1.0000
  H   H10       1.0  0.33627933560345463  0.7211951527423275  0.8776555157105286  1.0000
  H   H11       1.0  0.15167138290567425  0.9805146253370797  0.14281901455193718  1.0000
  H   H12       1.0  0.848328616062506  0.019485374639221346  0.8571809853530384  1.0000
  H   H13       1.0  0.47978899940952213  0.8418765288305557  0.5560293839620506  1.0000
  H   H14       1.0  0.5202109995586581  0.1581234711457453  0.44397061594292514  1.0000
  H   H15       1.0  0.5799837070917572  0.6323867279037406  0.6845982005868056  1.0000
  H   H16       1.0  0.4200162930553139  0.36761327199015276  0.3154018002453076  1.0000
  H   H17       1.0  0.7417298140817925  0.6524918564329558  0.285358008302406  1.0000
  H   H18       1.0  0.25827018631652143  0.3475081435435713  0.714641991601199  1.0000
  C   C1        1.0  0.2801214078642785  0.1607549071590381  0.04699745735255791  1.0000
  C   C2        1.0  0.7198785925340355  0.8392450928174892  0.953002542551047  1.0000
  C   C3        1.0  0.532489390307291  0.10135631828891044  0.22272605054861747  1.0000
  C   C4        1.0  0.4675106100910229  0.8986436816876167  0.7772739493549875  1.0000
  C   C5        1.0  0.4230715821200662  0.24483203243161167  0.040352463217489795  1.0000
  C   C6        1.0  0.5769284182782477  0.7551679675449156  0.9596475366861152  1.0000
  C   C7        1.0  0.3881068863710749  0.017816842320456383  0.22732673475369808  1.0000
  C   C8        1.0  0.6118931140272389  0.9821831576560707  0.7726732651499069  1.0000
  C   C9        1.0  0.5499587281473027  0.2143997043830227  0.12814675154864358  1.0000
  C   C10       1.0  0.4500412722510112  0.7856002955935045  0.8718532483549615  1.0000
  C   C11       1.0  0.2626517287789935  0.04659994580104326  0.13928252273230518  1.0000
  C   C12       1.0  0.7373482716193204  0.953400054175484  0.8607174771712999  1.0000
  C   C13       1.0  0.6507719218748799  0.580274817947357  0.5990793442737454  1.0000
  C   C14       1.0  0.34922807852343407  0.4197251820291702  0.4009206556298596  1.0000
  C   C15       1.0  0.7435097207487412  0.590592105040256  0.3752925845287079  1.0000
  C   C16       1.0  0.2564902782194389  0.409407894936045  0.6247074153762677  1.0000
  C   C17       1.0  0.6481087251034948  0.6604233946183878  0.48356774811356  1.0000
  C   C18       1.0  0.35189127529481906  0.3395766053581393  0.516432251790045  1.0000
  C   C19       1.0  0.8449026708781154  0.3594833436485734  0.4978910736740807  1.0000
  C   C20       1.0  0.15509732952019856  0.6405166563279538  0.5021089262295242  1.0000
  C   C21       1.0  0.7473758039401616  0.4319065531301154  0.6049969738590596  1.0000
  C   C22       1.0  0.25262419645815243  0.5680934468464118  0.39500302604454535  1.0000
  C   C23       1.0  0.8403950458867215  0.44257932186131765  0.38296928147935366  1.0000
  C   C24       1.0  0.1596049530814587  0.5574206781149834  0.6170307184256221  1.0000
  N   N1        1.0  0.6494063294451561  0.07689237605548115  0.3177443408358658  1.0000
  N   N2        1.0  0.3505936709531578  0.9231076239210461  0.6822556590677392  1.0000
  O   O1        1.0  0.5560056251482669  0.8047589761982396  0.47204944686911904  1.0000
  O   O2        1.0  0.4439943752500471  0.19524102377828761  0.5279505530344859  1.0000
  Cl  Cl1       1.0  0.9651411894814736  0.1764945690625013  0.5059722888399271  1.0000
  Cl  Cl2       1.0  0.034858809486706416  0.8235054309137997  0.49402771106504867  1.0000
  Cl  Cl3       1.0  0.7414253244639409  0.3374266233904806  0.7495563388649674  1.0000
  Cl  Cl4       1.0  0.25857467593437294  0.6625733765860466  0.25044366103863763  1.0000
  Cl  Cl5       1.0  0.9562373336298673  0.36130175235394857  0.2470340903757424  1.0000
  Cl  Cl6       1.0  0.04376266533831285  0.6386982476223525  0.7529659095292334  1.0000
  Br  Br1       1.0  0.09939792553198638  0.20729609358212706  0.9309152458139458  1.0000
  Br  Br2       1.0  0.9006020748663277  0.7927039063944001  0.0690847540896591  1.0000
