data_image0
_chemical_formula_structural       H16C24N2O2Cl10
_chemical_formula_sum              "H16 C24 N2 O2 Cl10"
_cell_length_a       7.168019984743417
_cell_length_b       9.217215093106239
_cell_length_c       11.255200355681103
_cell_angle_alpha    99.4955123924078
_cell_angle_beta     99.32747815568099
_cell_angle_gamma    101.53409113909115

_space_group_name_H-M_alt    "P 1"
_space_group_IT_number       1

loop_
  _space_group_symop_operation_xyz
  'x, y, z'

loop_
  _atom_site_type_symbol
  _atom_site_label
  _atom_site_symmetry_multiplicity
  _atom_site_fract_x
  _atom_site_fract_y
  _atom_site_fract_z
  _atom_site_occupancy
  H   H1        1.0  0.061334362243047565  0.5078313143136335  0.3639783332491871  1.0000
  H   H2        1.0  0.9386656375288243  0.4921686858949702  0.6360216672943635  1.0000
  H   H3        1.0  0.14317162308923073  0.36199924283168655  0.2984032883327482  1.0000
  H   H4        1.0  0.8568283763853672  0.6380007571436267  0.7015967112910546  1.0000
  H   H5        1.0  0.7310645368364485  0.5308849935745221  0.3077093655657674  1.0000
  H   H6        1.0  0.2689354640329484  0.46911500640180265  0.6922906340559081  1.0000
  H   H7        1.0  0.6494428692074823  0.09712686186494521  0.9618831056878641  1.0000
  H   H8        1.0  0.35055713195918853  0.9028731383446698  0.038116894853559014  1.0000
  H   H9        1.0  0.9526122424845543  0.174235005637396  0.12126918251289473  1.0000
  H   H10       1.0  0.04738775838484266  0.8257649943389288  0.8787308171087808  1.0000
  H   H11       1.0  0.02590030677019353  0.6745336085823769  0.5580636472659419  1.0000
  H   H12       1.0  0.9740996930016783  0.3254663916262267  0.4419363532776087  1.0000
  H   H13       1.0  0.1884198674592881  0.9094251195464587  0.6811158088859056  1.0000
  H   H14       1.0  0.8115801323125839  0.09057488066214502  0.318884191657645  1.0000
  H   H15       1.0  0.3597379072452955  0.1731288565281042  0.6893325136955855  1.0000
  H   H16       1.0  0.6402620925265764  0.8268711436804994  0.31066748684796514  1.0000
  C   C1        1.0  0.8607854739630864  0.35627455025257987  0.22671877146080016  1.0000
  C   C2        1.0  0.13921452690631042  0.6437254497237449  0.7732812281608752  1.0000
  C   C3        1.0  0.7135578079973712  0.4351639265685293  0.23248384046333723  1.0000
  C   C4        1.0  0.28644219287202577  0.5648360734077954  0.7675161591583382  1.0000
  C   C5        1.0  0.5178489475873631  0.26668745067796734  0.045588313967777586  1.0000
  C   C6        1.0  0.48215105357930765  0.7333125495316476  0.9544116865736455  1.0000
  C   C7        1.0  0.6671301068184174  0.19084591820902674  0.03868649245176911  1.0000
  C   C8        1.0  0.33286989265618055  0.8091540817662866  0.9613135071720338  1.0000
  C   C9        1.0  0.5435960714864413  0.3906268005402548  0.14264854374559327  1.0000
  C   C10       1.0  0.4564039282854307  0.6093731996683488  0.8573514567979573  1.0000
  C   C11       1.0  0.8374595730305673  0.2348204724947822  0.12822987483212908  1.0000
  C   C12       1.0  0.16254042674130448  0.7651795277138215  0.8717701257114214  1.0000
  C   C13       1.0  0.2778647365621048  0.04104546668100861  0.3802565085458119  1.0000
  C   C14       1.0  0.722135263209767  0.958954533527595  0.6197434919977387  1.0000
  C   C15       1.0  0.2117138859753246  0.9459670686885256  0.5963331237620471  1.0000
  C   C16       1.0  0.7882861134992734  0.05403293128678759  0.4036668758617557  1.0000
  C   C17       1.0  0.3417488122801699  0.14256552847051612  0.4940566549828507  1.0000
  C   C18       1.0  0.658251187491702  0.8574344717380874  0.5059433455606999  1.0000
  C   C19       1.0  0.18201670829613031  0.8911712663176473  0.3756228006252579  1.0000
  C   C20       1.0  0.8179832911784676  0.10882873365766607  0.6243771989985449  1.0000
  C   C21       1.0  0.14627640094930552  0.8423232461432972  0.48384074382787307  1.0000
  C   C22       1.0  0.8537235985252924  0.15767675383201613  0.5161592557959298  1.0000
  C   C23       1.0  0.308594617540749  0.09399916713990077  0.6012956362317681  1.0000
  C   C24       1.0  0.6914053819338489  0.9060008328354124  0.3987043633920347  1.0000
  N   N1        1.0  0.0249882405908163  0.39458122396241957  0.3239415928805207  1.0000
  N   N2        1.0  0.9750117591810553  0.605418776246184  0.6760584076630298  1.0000
  O   O1        1.0  0.050788566804811155  0.6977937214596691  0.4742661031718526  1.0000
  O   O2        1.0  0.9492114326697869  0.30220627851564424  0.5257338964519502  1.0000
  Cl  Cl1       1.0  0.36452904416078613  0.48963807082917793  0.15385715812425338  1.0000
  Cl  Cl2       1.0  0.6354709556110858  0.5103619293794258  0.8461428424192973  1.0000
  Cl  Cl3       1.0  0.30407781674130735  0.20679377172004804  0.9369532377919859  1.0000
  Cl  Cl4       1.0  0.6959221827332908  0.7932062282552653  0.06304676183181694  1.0000
  Cl  Cl5       1.0  0.46344796471285543  0.3265816929056842  0.5021802338103081  1.0000
  Cl  Cl6       1.0  0.5365520350590164  0.6734183073029195  0.49781976673324246  1.0000
  Cl  Cl7       1.0  0.1054816805752887  0.7637694548629173  0.2377857632234256  1.0000
  Cl  Cl8       1.0  0.8945183202941082  0.23623054511340744  0.7622142363982499  1.0000
  Cl  Cl9       1.0  0.31763368521164775  0.10018650455454736  0.2475438864879237  1.0000
  Cl  Cl10      1.0  0.6823663156577491  0.8998134954217774  0.7524561131337516  1.0000
