data_image0
_chemical_formula_structural       H16C24N2O2Cl10
_chemical_formula_sum              "H16 C24 N2 O2 Cl10"
_cell_length_a       7.121330882620686
_cell_length_b       9.22677815971826
_cell_length_c       11.811778723793722
_cell_angle_alpha    78.19156972726321
_cell_angle_beta     74.48730273119202
_cell_angle_gamma    78.05979859716962

_space_group_name_H-M_alt    "P 1"
_space_group_IT_number       1

loop_
  _space_group_symop_operation_xyz
  'x, y, z'

loop_
  _atom_site_type_symbol
  _atom_site_label
  _atom_site_symmetry_multiplicity
  _atom_site_fract_x
  _atom_site_fract_y
  _atom_site_fract_z
  _atom_site_occupancy
  H   H1        1.0  0.28088251636950695  0.6652100722716962  0.816058444135056  1.0000
  H   H2        1.0  0.7191174845259959  0.3347899277414115  0.18394155627838638  1.0000
  H   H3        1.0  0.44919521024184206  0.4017425608906778  0.8244926988372161  1.0000
  H   H4        1.0  0.5508047895901135  0.5982574393008058  0.17550730068947365  1.0000
  H   H5        1.0  0.5185084419074193  0.17210075297754054  0.9435659948921796  1.0000
  H   H6        1.0  0.48149155932959437  0.8278992472159385  0.05643400463141992  1.0000
  H   H7        1.0  0.7744660184524218  0.2773433542537572  0.6307708478955273  1.0000
  H   H8        1.0  0.22553398137953368  0.7226566459377264  0.3692291516311625  1.0000
  H   H9        1.0  0.3370123298660466  0.22332805668202127  0.45739220500671524  1.0000
  H   H10       1.0  0.6629876696243979  0.7766719433290907  0.5426077954098174  1.0000
  H   H11       1.0  0.355250975155031  0.9768605233896285  0.8089253063234625  1.0000
  H   H12       1.0  0.6447490246769244  0.023139476801855123  0.19107469320322717  1.0000
  H   H13       1.0  0.7952002170481365  0.11466685100268066  0.8133977039403962  1.0000
  H   H14       1.0  0.20479978244230812  0.8853331490084314  0.1866022964761364  1.0000
  H   H15       1.0  0.6533495005697246  0.9804838352881836  0.8729566093985742  1.0000
  H   H16       1.0  0.3466504989207199  0.01951616472292822  0.12704339101795847  1.0000
  C   C1        1.0  0.34494242189385993  0.34490456410760034  0.014776372716183117  1.0000
  C   C2        1.0  0.6550575793431539  0.6550954360858787  0.9852236268074165  1.0000
  C   C3        1.0  0.22985622759307886  0.39975740616697497  0.11906786026254765  1.0000
  C   C4        1.0  0.7701437736439348  0.6002425940265043  0.8809321392610517  1.0000
  C   C5        1.0  0.13544773091047196  0.5497254031035252  0.11435556654034003  1.0000
  C   C6        1.0  0.8645522685799726  0.45027459690758675  0.8856444338761925  1.0000
  C   C7        1.0  0.15469790739842934  0.6448313908629376  0.004141971036061033  1.0000
  C   C8        1.0  0.8453020923915395  0.35516860804084033  0.9958580293783117  1.0000
  C   C9        1.0  0.267712105589405  0.5906151508095273  0.9010414941873709  1.0000
  C   C10       1.0  0.7322878953060978  0.4093848492035802  0.0989585062260715  1.0000
  C   C11       1.0  0.36207106759496466  0.4426073516064338  0.9060803691012017  1.0000
  C   C12       1.0  0.637928932195004  0.5573926472973441  0.09391963131317106  1.0000
  C   C13       1.0  0.5742248186512434  0.12343259496906515  0.7313099205389415  1.0000
  C   C14       1.0  0.4257751822442595  0.8765674050440424  0.2686900798745007  1.0000
  C   C15       1.0  0.6487921220688886  0.22608799534867863  0.6326811625153951  1.0000
  C   C16       1.0  0.351207877421556  0.7739120046624333  0.36731883790113756  1.0000
  C   C17       1.0  0.5628101256043144  0.25940426598718136  0.5354775437525299  1.0000
  C   C18       1.0  0.43718987563269934  0.7405957342062978  0.4645224557710697  1.0000
  C   C19       1.0  0.4015516841016305  0.19649896623165872  0.5342002934891218  1.0000
  C   C20       1.0  0.5984483171353833  0.8035010339618204  0.4657997060344777  1.0000
  C   C21       1.0  0.3296617782492789  0.09562806953648137  0.6343036070110033  1.0000
  C   C22       1.0  0.6703382229877347  0.904371930656998  0.3656963925125962  1.0000
  C   C23       1.0  0.4132372365008193  0.05699966568654067  0.7324908269271465  1.0000
  C   C24       1.0  0.5867627633311361  0.943000334504943  0.2675091725995432  1.0000
  N   N1        1.0  0.6555216510435768  0.09030192493128791  0.8321986640950487  1.0000
  N   N2        1.0  0.3444783484468677  0.9096980750798241  0.16780133632148372  1.0000
  O   O1        1.0  0.4336981724339425  0.200271362999551  0.024185025034403042  1.0000
  O   O2        1.0  0.5663018270565021  0.7997286370115609  0.9758149753821296  1.0000
  Cl  Cl1       1.0  0.20588917786385136  0.2785096536792038  0.2517046217859615  1.0000
  Cl  Cl2       1.0  0.7941108219681041  0.72149034651228  0.7482953777407282  1.0000
  Cl  Cl3       1.0  0.9964194423864726  0.6157495782182235  0.24196505301088705  1.0000
  Cl  Cl4       1.0  0.003580558850541019  0.38425042197525555  0.7580349465127124  1.0000
  Cl  Cl5       1.0  0.037742617561387706  0.82898494911344  0.9946080292801095  1.0000
  Cl  Cl6       1.0  0.962257382570092  0.17101504997070943  0.005391970244420394  1.0000
  Cl  Cl7       1.0  0.6647610550896287  0.37917842034204396  0.4116718384494177  1.0000
  Cl  Cl8       1.0  0.33523894440081586  0.620821579669068  0.588328161967115  1.0000
  Cl  Cl9       1.0  0.1297515802329524  0.01437195345913377  0.6355733888107674  1.0000
  Cl  Cl10      1.0  0.8702484192574922  0.9856280465519784  0.36442661160576517  1.0000
