data_image0
_chemical_formula_structural       H88B2C104N4F30
_chemical_formula_sum              "H88 B2 C104 N4 F30"
_cell_length_a       10.80012835212766
_cell_length_b       12.36233150926755
_cell_length_c       17.8791901404243
_cell_angle_alpha    98.96926935064975
_cell_angle_beta     91.36260799578604
_cell_angle_gamma    104.94031609923383

_space_group_name_H-M_alt    "P 1"
_space_group_IT_number       1

loop_
  _space_group_symop_operation_xyz
  'x, y, z'

loop_
  _atom_site_type_symbol
  _atom_site_label
  _atom_site_symmetry_multiplicity
  _atom_site_fract_x
  _atom_site_fract_y
  _atom_site_fract_z
  _atom_site_occupancy
  H   H1        1.0  0.9459000459659584  0.18542991929646288  0.25455966452137935  1.0000
  H   H2        1.0  0.05409995449365234  0.8145700804277575  0.7454403354996303  1.0000
  H   H3        1.0  0.5498321508469618  0.13876287046704866  0.2814957711681973  1.0000
  H   H4        1.0  0.4501678489325091  0.8612371300935532  0.7185042288533553  1.0000
  H   H5        1.0  0.1696962725510722  0.5998086655874736  0.2772540846931578  1.0000
  H   H6        1.0  0.8303037279085386  0.4001913341367467  0.7227459153278519  1.0000
  H   H7        1.0  0.1956169721972827  0.6008504838646433  0.14044407070493214  1.0000
  H   H8        1.0  0.8043830275821882  0.3991495166959585  0.8595559293166205  1.0000
  H   H9        1.0  0.05096314657847652  0.4524260943769062  0.044854696032361106  1.0000
  H   H10       1.0  0.9490368541270121  0.5475739061842668  0.9551453039876276  1.0000
  H   H11       1.0  0.9024131569216809  0.39405419433727945  0.35303775119364805  1.0000
  H   H12       1.0  0.0975868437838077  0.6059458062238936  0.6469622488263408  1.0000
  H   H13       1.0  0.07858289362055966  0.6360443213744759  0.38550804113659876  1.0000
  H   H14       1.0  0.9214171061589111  0.36395567918612604  0.6144919588849539  1.0000
  H   H15       1.0  0.9780833742646675  0.5645775547832335  0.4492705625962391  1.0000
  H   H16       1.0  0.021916626194943202  0.4354224449409869  0.5507294374247705  1.0000
  H   H17       1.0  0.9089185252141495  0.5982557584069819  0.36762800536018087  1.0000
  H   H18       1.0  0.09108147431944354  0.4017442413166672  0.6323719946623926  1.0000
  H   H19       1.0  0.10623093970397833  0.33060647241673835  0.3474133721901994  1.0000
  H   H20       1.0  0.8937690598296146  0.6693935273069107  0.6525866278323741  1.0000
  H   H21       1.0  0.09441141366788228  0.40969888253586995  0.43778469107302764  1.0000
  H   H22       1.0  0.9055885870376065  0.5903011180253032  0.5622153089469611  1.0000
  H   H23       1.0  0.1971207456619678  0.47348124023056476  0.3718369545357651  1.0000
  H   H24       1.0  0.802879254117503  0.5265187603300372  0.6281630454857875  1.0000
  H   H25       1.0  0.7671922617405497  0.23911927651459033  0.08978049805704236  1.0000
  H   H26       1.0  0.23280773779304328  0.7608807232090588  0.9102195019655311  1.0000
  H   H27       1.0  0.8094759663703542  0.3679924468413836  0.9911028726601776  1.0000
  H   H28       1.0  0.19052403408925656  0.6320075528828367  0.008897127360832239  1.0000
  H   H29       1.0  0.7789479144166578  0.22100179891582017  0.9546200269784431  1.0000
  H   H30       1.0  0.22105208604295287  0.7789982008084  0.04537997304256657  1.0000
  H   H31       1.0  0.9377536940205877  0.30863360036352416  0.9617769934900192  1.0000
  H   H32       1.0  0.06224630643902316  0.6913663993606962  0.038223006530990644  1.0000
  H   H33       1.0  0.02416510084265051  0.19253350606094227  0.04699349190397554  1.0000
  H   H34       1.0  0.9758348986909424  0.8074664936627067  0.9530065081185979  1.0000
  H   H35       1.0  0.8704983823201898  0.09418293280458477  0.02687452274595025  1.0000
  H   H36       1.0  0.1295016181394208  0.9058170669196355  0.9731254772750594  1.0000
  H   H37       1.0  0.933935387687915  0.14243889568821172  0.12198018327628533  1.0000
  H   H38       1.0  0.06606461184567816  0.8575611040354373  0.8780198167462882  1.0000
  H   H39       1.0  0.8314958213373186  0.9253616837988962  0.45404504510236093  1.0000
  H   H40       1.0  0.1685041781962743  0.07463831592475287  0.5459549549202125  1.0000
  H   H41       1.0  0.74513560817965  0.7446760680508763  0.36536889651269583  1.0000
  H   H42       1.0  0.2548643925258387  0.2553239325102967  0.634631103507293  1.0000
  H   H43       1.0  0.65384323624543  0.7446948310245101  0.237005490208994  1.0000
  H   H44       1.0  0.3461567644600587  0.255305169536663  0.7629945098109948  1.0000
  H   H45       1.0  0.8990227296217193  0.20551712263948932  0.3953469157503243  1.0000
  H   H46       1.0  0.1009772699118737  0.7944828770841598  0.6046530842722492  1.0000
  H   H47       1.0  0.6731487871822414  0.1987997572905477  0.42296313307183914  1.0000
  H   H48       1.0  0.3268512132773694  0.8012002424336726  0.5770368669491706  1.0000
  H   H49       1.0  0.7799795892626525  0.27012575014504026  0.5022755661557871  1.0000
  H   H50       1.0  0.22002041027094046  0.7298742495786089  0.4977244338667865  1.0000
  H   H51       1.0  0.6874292909870059  0.12826748240138303  0.5012078417817606  1.0000
  H   H52       1.0  0.31257070947260496  0.8717325173228373  0.4987921582392491  1.0000
  H   H53       1.0  0.9939363588754881  0.2221556304381775  0.5206945664549639  1.0000
  H   H54       1.0  0.0060636409039826885  0.7778443701224242  0.4793054335665887  1.0000
  H   H55       1.0  0.022661196116338694  0.10006480655317694  0.46493911284332695  1.0000
  H   H56       1.0  0.9773388034172543  0.8999351931704722  0.5350608871792466  1.0000
  H   H57       1.0  0.9032338991618954  0.08569652445563865  0.5324757865222751  1.0000
  H   H58       1.0  0.09676610129771536  0.9143034752685817  0.4675242134987345  1.0000
  H   H59       1.0  0.6495457932895252  0.013243105685762202  0.16259889289175997  1.0000
  H   H60       1.0  0.3504542071700856  0.986756894038458  0.8374011071292498  1.0000
  H   H61       1.0  0.4777493509856729  0.7745919973219111  0.16700316586056743  1.0000
  H   H62       1.0  0.5222506485479201  0.225408002401738  0.832996834162006  1.0000
  H   H63       1.0  0.46153097643285373  0.8624879153061684  0.09993678167548221  1.0000
  H   H64       1.0  0.5384690242726349  0.1375120852550047  0.9000632183445066  1.0000
  H   H65       1.0  0.4386980734374752  0.9051955805589622  0.19732703180885908  1.0000
  H   H66       1.0  0.5613019270221357  0.0948044191652581  0.8026729682121506  1.0000
  H   H67       1.0  0.701931558868548  0.7819454733248059  0.11345828628810495  1.0000
  H   H68       1.0  0.29806844066504506  0.21805452639884326  0.8865417137344684  1.0000
  H   H69       1.0  0.8196886218857372  0.9140647648765686  0.12074994923020603  1.0000
  H   H70       1.0  0.18031137881975154  0.08593523568460434  0.8792500507897828  1.0000
  H   H71       1.0  0.683679697180554  0.8798553757283981  0.05457338931646514  1.0000
  H   H72       1.0  0.31632030235303904  0.12014462399525111  0.9454266107061082  1.0000
  H   H73       1.0  0.31414446526348216  0.827037760254218  0.3041345018119132  1.0000
  H   H74       1.0  0.6858555354420064  0.17296224030695484  0.6958654982080756  1.0000
  H   H75       1.0  0.49400270327081724  0.9563034750275659  0.3892284043531627  1.0000
  H   H76       1.0  0.5059972971887935  0.04369652469665441  0.610771595667847  1.0000
  H   H77       1.0  0.4742613584199403  0.14539022362215923  0.4518622107944229  1.0000
  H   H78       1.0  0.5257386413595304  0.8546097769384426  0.5481377892271297  1.0000
  H   H79       1.0  0.27694521468367106  0.20542656624742892  0.42719384025196283  1.0000
  H   H80       1.0  0.7230547848499219  0.7945734334762202  0.5728061597706107  1.0000
  H   H81       1.0  0.0957169423196097  0.07367660127134264  0.34313350440030466  1.0000
  H   H82       1.0  0.9042830583858789  0.9263233992898303  0.6568664956196841  1.0000
  H   H83       1.0  0.03181790460719868  0.7911822123424065  0.29602085829420305  1.0000
  H   H84       1.0  0.9681820958524122  0.20881778738181386  0.7039791417268066  1.0000
  H   H85       1.0  0.1153334666290544  0.8221987218401964  0.2152462349399906  1.0000
  H   H86       1.0  0.8846665340764343  0.1778012787209768  0.7847537650799982  1.0000
  H   H87       1.0  0.010538956320409328  0.904134294621952  0.25204169690296013  1.0000
  H   H88       1.0  0.9894610432131836  0.09586570510169706  0.7479583031196134  1.0000
  B   B1        1.0  0.5933836026060086  0.354030863413006  0.21380063881930783  1.0000
  B   B2        1.0  0.4066163971734621  0.6459691371475956  0.7861993612022448  1.0000
  C   C1        1.0  0.8517243162329348  0.20000734804018072  0.2543938169173534  1.0000
  C   C2        1.0  0.14827568330065827  0.7999926516834682  0.74560618310522  1.0000
  C   C3        1.0  0.6883726090269638  0.27796705708385033  0.23668703096854232  1.0000
  C   C4        1.0  0.311627390752507  0.7220329434767515  0.7633129690530103  1.0000
  C   C5        1.0  0.6449853155137287  0.1794354685788549  0.2664090830163164  1.0000
  C   C6        1.0  0.3550146842657422  0.820564531981747  0.7335909170052363  1.0000
  C   C7        1.0  0.9217707495861275  0.37413722371837854  0.20494033593591013  1.0000
  C   C8        1.0  0.07822925087348323  0.6258627760058416  0.7950596640850995  1.0000
  C   C9        1.0  0.004274503820657373  0.45515679699731404  0.26064066085595117  1.0000
  C   C10       1.0  0.9957254966389534  0.5448432027269062  0.7393593391650585  1.0000
  C   C11       1.0  0.10340940195214922  0.536186991976375  0.23564707879657767  1.0000
  C   C12       1.0  0.8965905975814438  0.46381300774727413  0.7643529212259959  1.0000
  C   C13       1.0  0.11842371766055887  0.5364651879910756  0.1587023429850612  1.0000
  C   C14       1.0  0.8815762821189119  0.4635348125695261  0.8412976570364914  1.0000
  C   C15       1.0  0.03731874927143453  0.4528488201560881  0.1049608680868304  1.0000
  C   C16       1.0  0.9626812514340543  0.5471511804050849  0.8950391319331584  1.0000
  C   C17       1.0  0.9395351502304747  0.36745917734520517  0.12675388059109208  1.0000
  C   C18       1.0  0.060464850229136065  0.6325408223790151  0.8732461194299177  1.0000
  C   C19       1.0  0.9932099194061491  0.454558751771014  0.34502161575595225  1.0000
  C   C20       1.0  0.0067900809860852885  0.5454412478092355  0.6549783836975508  1.0000
  C   C21       1.0  0.9894207186167073  0.5703225857162895  0.3890596488717291  1.0000
  C   C22       1.0  0.010579280916885666  0.42967741400735965  0.6109403511508442  1.0000
  C   C23       1.0  0.10372991063377444  0.4144791972661991  0.3773182249115441  1.0000
  C   C24       1.0  0.8962700888998185  0.58552080245745  0.6226817751110293  1.0000
  C   C25       1.0  0.8634381420206744  0.26699274047206484  0.06964123150424531  1.0000
  C   C26       1.0  0.13656185843893656  0.7330072592521555  0.9303587685167644  1.0000
  C   C27       1.0  0.8470547274314126  0.2934670992532427  0.9898489734221786  1.0000
  C   C28       1.0  0.15294527302819824  0.7065329004709777  0.010151026598831128  1.0000
  C   C29       1.0  0.9267680704577937  0.16817123679650828  0.06650251333409844  1.0000
  C   C30       1.0  0.07323193000181706  0.831828762927712  0.9334974866869111  1.0000
  C   C31       1.0  0.7425874682994973  0.027365917363885148  0.3023715111531256  1.0000
  C   C32       1.0  0.25741253209273696  0.9726340822163645  0.6976284883003775  1.0000
  C   C33       1.0  0.7947544658264515  0.030945146859388227  0.3759813523518435  1.0000
  C   C34       1.0  0.20524553370714152  0.969054852864261  0.6240186476707299  1.0000
  C   C35       1.0  0.792699750302099  0.9266203419105224  0.3976384352520094  1.0000
  C   C36       1.0  0.20730025015751177  0.07337965781369792  0.6023615647690003  1.0000
  C   C37       1.0  0.7429011242010731  0.8247633221895243  0.3478768892785596  1.0000
  C   C38       1.0  0.2570988753325198  0.17523667753412467  0.6521231107440139  1.0000
  C   C39       1.0  0.692119452674553  0.8246740613949195  0.27563624934442627  1.0000
  C   C40       1.0  0.30788054685904015  0.17532593832872967  0.7243637506781473  1.0000
  C   C41       1.0  0.6908457727481297  0.9264831475735255  0.2508712182834426  1.0000
  C   C42       1.0  0.3091542267854631  0.07351685215012356  0.7491287817391309  1.0000
  C   C43       1.0  0.8489833857894225  0.14280257217310702  0.42947907501374677  1.0000
  C   C44       1.0  0.15101661399004845  0.8571974283874949  0.5705209250078058  1.0000
  C   C45       1.0  0.7404833395164531  0.1874344152371362  0.4659216420085039  1.0000
  C   C46       1.0  0.2595166609431577  0.812565584487084  0.5340783580125058  1.0000
  C   C47       1.0  0.9478019903775399  0.1365161328823992  0.4902103491200631  1.0000
  C   C48       1.0  0.05219801032794873  0.8634838676787736  0.5097896508999257  1.0000
  C   C49       1.0  0.6391731078490648  0.9252336860149519  0.17090343931926977  1.0000
  C   C50       1.0  0.360826891930406  0.07476631454564993  0.8290965607022829  1.0000
  C   C51       1.0  0.49562563471865523  0.8632773151153559  0.158326855918919  1.0000
  C   C52       1.0  0.5043743648149378  0.1367226846082932  0.8416731441036543  1.0000
  C   C53       1.0  0.7163951948392632  0.8725259781603981  0.11162326964872306  1.0000
  C   C54       1.0  0.28360480469432986  0.127474021563251  0.8883767303738505  1.0000
  C   C55       1.0  0.6502024858707413  0.43248539415681575  0.1485529049708052  1.0000
  C   C56       1.0  0.34979751366285167  0.5675146055668333  0.8514470950517682  1.0000
  C   C57       1.0  0.7484649240737414  0.532801055534493  0.17029061238730858  1.0000
  C   C58       1.0  0.25153507563835276  0.46719894488213815  0.8297093870667374  1.0000
  C   C59       1.0  0.7998154642685814  0.6092529739093493  0.12242408780511148  1.0000
  C   C60       1.0  0.2001845361910294  0.39074702581487114  0.8775759122158981  1.0000
  C   C61       1.0  0.7509152202183282  0.5884712259543932  0.04732300458842086  1.0000
  C   C62       1.0  0.24908478024128253  0.4115287737698271  0.9526769954325889  1.0000
  C   C63       1.0  0.6538443645934083  0.4901220924047584  0.02222606239106417  1.0000
  C   C64       1.0  0.3461556349401847  0.5098779073188907  0.9777739376315093  1.0000
  C   C65       1.0  0.6048930501846072  0.4162949458874537  0.07253308284270787  1.0000
  C   C66       1.0  0.39510695027500375  0.5837050538367666  0.9274669171783019  1.0000
  C   C67       1.0  0.5701398070171985  0.4450897528592272  0.2870492580220546  1.0000
  C   C68       1.0  0.42986019344241233  0.554910246864993  0.7129507419989551  1.0000
  C   C69       1.0  0.4973111251525926  0.5204956194980895  0.2753695687101208  1.0000
  C   C70       1.0  0.5026888753070182  0.4795043802261308  0.724630431310889  1.0000
  C   C71       1.0  0.4713151967198831  0.6003268985432424  0.33241530419722554  1.0000
  C   C72       1.0  0.5286848028137099  0.3996731011804066  0.6675846958253479  1.0000
  C   C73       1.0  0.521177691637721  0.6091815550236712  0.40627289034337055  1.0000
  C   C74       1.0  0.47882230789587193  0.3908184446999778  0.5937271096792028  1.0000
  C   C75       1.0  0.5967002975913017  0.5382819693411063  0.4208320838250282  1.0000
  C   C76       1.0  0.40329970194229126  0.46171803038254283  0.5791679161975453  1.0000
  C   C77       1.0  0.6179312988441614  0.4579043542548389  0.3619694758968962  1.0000
  C   C78       1.0  0.3820687016154494  0.5420956454693814  0.6380305241241135  1.0000
  C   C79       1.0  0.4564221653107472  0.25518591119654654  0.18468780967723164  1.0000
  C   C80       1.0  0.5435778344687235  0.7448140893640552  0.8153121903443209  1.0000
  C   C81       1.0  0.33689630377334545  0.24723178645335042  0.21510360645752527  1.0000
  C   C82       1.0  0.6631036960061254  0.7527682141072514  0.7848963935640272  1.0000
  C   C83       1.0  0.22685134886547836  0.16003102868765998  0.18910466934317852  1.0000
  C   C84       1.0  0.7731486509139924  0.8399689718729418  0.8108953306783742  1.0000
  C   C85       1.0  0.23107384390910718  0.07281932484592961  0.13108267022454043  1.0000
  C   C86       1.0  0.7689261556244857  0.9271806748777194  0.868917329798033  1.0000
  C   C87       1.0  0.3481431617088189  0.07490402502227839  0.09957261334370886  1.0000
  C   C88       1.0  0.6518568387507918  0.9250959747019419  0.9004273866773009  1.0000
  C   C89       1.0  0.45540877033348487  0.1636446192048401  0.12715669143255662  1.0000
  C   C90       1.0  0.5445912301261259  0.8363553805193803  0.872843308588453  1.0000
  C   C91       1.0  0.19179900712126224  0.941110586348022  0.31791414140291446  1.0000
  C   C92       1.0  0.8082009924123308  0.05888941337562705  0.682085858619659  1.0000
  C   C93       1.0  0.30529968467561164  0.9097640066428254  0.33128455856426164  1.0000
  C   C94       1.0  0.6947003157839992  0.09023599308139478  0.668715441456748  1.0000
  C   C95       1.0  0.4067251294211709  0.9825000725373269  0.37912612442300025  1.0000
  C   C96       1.0  0.5932748712843178  0.01749992802384613  0.6208738755969885  1.0000
  C   C97       1.0  0.3962109329162326  0.08871238776741806  0.41411426010618557  1.0000
  C   C98       1.0  0.603789067789256  0.9112876127937549  0.5858857399138032  1.0000
  C   C99       1.0  0.28461901835879766  0.1218563361471806  0.40079288203642177  1.0000
  C   C100      1.0  0.7153809811747954  0.8781436635764686  0.5992071179861517  1.0000
  C   C101      1.0  0.18321671267977446  0.04811987377356901  0.3534018587979735  1.0000
  C   C102      1.0  0.816783286786442  0.9518801258061094  0.6465981406570933  1.0000
  C   C103      1.0  0.08208510344002218  0.8612523720492107  0.26767624462719575  1.0000
  C   C104      1.0  0.9179148972654663  0.13874762851196218  0.732323755392793  1.0000
  N   N1        1.0  0.8206441477805294  0.2876809908289507  0.2299923899971935  1.0000
  N   N2        1.0  0.17935585175306354  0.7123190088946983  0.7700076100253799  1.0000
  N   N3        1.0  0.7463875662830027  0.13321309475166676  0.2771383233700171  1.0000
  N   N4        1.0  0.25361243417660806  0.8667869049725535  0.7228616766509927  1.0000
  F   F1        1.0  0.7996254493912894  0.5629007629503727  0.24341011806753668  1.0000
  F   F2        1.0  0.20037455106832136  0.4370992367738476  0.756589881953473  1.0000
  F   F3        1.0  0.8963558221407671  0.7029990778858909  0.14781749980252407  1.0000
  F   F4        1.0  0.10364417739282565  0.2970009218377581  0.8521825002200495  1.0000
  F   F5        1.0  0.7960728758165753  0.6629297183394689  0.0003109438881564311  1.0000
  F   F6        1.0  0.20392712488891337  0.3370702822217041  0.9996890561318323  1.0000
  F   F7        1.0  0.6064189540454233  0.466669529549869  0.9491107827366008  1.0000
  F   F8        1.0  0.39358104573404756  0.5333304710107328  0.05088921728495192  1.0000
  F   F9        1.0  0.5050519961505727  0.3272817458077788  0.04156078502582117  1.0000
  F   F10       1.0  0.494948004309038  0.6727182539164415  0.9584392149951886  1.0000
  F   F11       1.0  0.44342050374942454  0.5157755167661908  0.20496127594044192  1.0000
  F   F12       1.0  0.5565794969560641  0.4842244837949822  0.7950387240795469  1.0000
  F   F13       1.0  0.3987324900376478  0.6699600060253219  0.31717945573254147  1.0000
  F   F14       1.0  0.6012675094959452  0.33003999369832715  0.682820544290032  1.0000
  F   F15       1.0  0.49760419286291674  0.6860036463677869  0.4626560848462541  1.0000
  F   F16       1.0  0.5023958066032996  0.31399635321189145  0.5373439146088128  1.0000
  F   F17       1.0  0.6493661310688215  0.5484099653142164  0.49205621704594343  1.0000
  F   F18       1.0  0.35063386846477146  0.4515900344094327  0.50794378297663  1.0000
  F   F19       1.0  0.6913638571138493  0.39150537889891607  0.3829226792673112  1.0000
  F   F20       1.0  0.3086361426656216  0.6084946216616858  0.6170773207542414  1.0000
  F   F21       1.0  0.3185143524891015  0.32376582474466936  0.2742769084248818  1.0000
  F   F22       1.0  0.6814856482163872  0.6762341758165037  0.7257230915951071  1.0000
  F   F23       1.0  0.11409632433256642  0.15884852601410068  0.22138864336769434  1.0000
  F   F24       1.0  0.8859036761270443  0.8411514737101196  0.7786113566533154  1.0000
  F   F25       1.0  0.12460330581178941  0.9882902920005158  0.10658612211800311  1.0000
  F   F26       1.0  0.8753966937218036  0.011709707723133456  0.8934138779045703  1.0000
  F   F27       1.0  0.35641119830918544  0.9915850387395251  0.04251722524514076  1.0000
  F   F28       1.0  0.6435888021504254  0.008414960984695161  0.957482774775869  1.0000
  F   F29       1.0  0.5656358389929367  0.15711754841496306  0.09344376458287812  1.0000
  F   F30       1.0  0.43436416054065635  0.8428824513086859  0.9065562354396953  1.0000
