data_image0
_chemical_formula_structural       H18C24N2O2I10
_chemical_formula_sum              "H18 C24 N2 O2 I10"
_cell_length_a       8.517091153430716
_cell_length_b       9.72970555712971
_cell_length_c       12.26117475446184
_cell_angle_alpha    108.44391614308684
_cell_angle_beta     101.81136876807665
_cell_angle_gamma    104.6795560211232

_space_group_name_H-M_alt    "P 1"
_space_group_IT_number       1

loop_
  _space_group_symop_operation_xyz
  'x, y, z'

loop_
  _atom_site_type_symbol
  _atom_site_label
  _atom_site_symmetry_multiplicity
  _atom_site_fract_x
  _atom_site_fract_y
  _atom_site_fract_z
  _atom_site_occupancy
  H   H1        1.0  0.9835661294711671  0.26617970355309584  0.37941574247023896  1.0000
  H   H2        1.0  0.01643386990821769  0.7338202958063587  0.6205842568211544  1.0000
  H   H3        1.0  0.1444580846206715  0.09867319207610528  0.4203615459924119  1.0000
  H   H4        1.0  0.8555419147587132  0.9013268072833491  0.5796384532989813  1.0000
  H   H5        1.0  0.29226080463001913  0.989861990785368  0.2749365955586615  1.0000
  H   H6        1.0  0.7077391950511909  0.010138009636111665  0.7250634037318764  1.0000
  H   H7        1.0  0.36263999360782034  0.9664355700014837  0.08273484515706846  1.0000
  H   H8        1.0  0.6373600073356291  0.03356442981687957  0.917265155047978  1.0000
  H   H9        1.0  0.3387560908773025  0.03669457839552103  0.9021028789170383  1.0000
  H   H10       1.0  0.661243908886636  0.9633054214133716  0.09789712127873065  1.0000
  H   H11       1.0  0.18006892910035469  0.21047303861740493  0.8735840605861482  1.0000
  H   H12       1.0  0.8199310706635838  0.7895269611914878  0.1264159396096209  1.0000
  H   H13       1.0  0.9112022336309435  0.483889999602744  0.09415735390479198  1.0000
  H   H14       1.0  0.08879776731250612  0.5161100002156196  0.9058426463002545  1.0000
  H   H15       1.0  0.12409480530846836  0.5189558020569287  0.18152679886290365  1.0000
  H   H16       1.0  0.8759051944554701  0.4810441977519641  0.8184732013328654  1.0000
  H   H17       1.0  0.7482899376998977  0.26068678654332017  0.2752258158049924  1.0000
  H   H18       1.0  0.2517100620640408  0.7393132132655725  0.7247741843907766  1.0000
  C   C1        1.0  0.04648751762012686  0.21518916476203123  0.31688347724193083  1.0000
  C   C2        1.0  0.9535124821438116  0.7848108350468613  0.6831165229538382  1.0000
  C   C3        1.0  0.13863780929992245  0.1221520999169811  0.33890546346297296  1.0000
  C   C4        1.0  0.8613621907658414  0.8778479009539368  0.6610945367319407  1.0000
  C   C5        1.0  0.22160164671450466  0.06445733234829541  0.25922149633359415  1.0000
  C   C6        1.0  0.7783983530494338  0.9355426674605971  0.7407785038621748  1.0000
  C   C7        1.0  0.21538323602280798  0.10185735349566223  0.15622407920156367  1.0000
  C   C8        1.0  0.784616763658402  0.8981426469258174  0.8437759200889743  1.0000
  C   C9        1.0  0.2941603149207127  0.04352590549565293  0.0696208607754593  1.0000
  C   C10       1.0  0.7058396863245624  0.9564740953847357  0.9303791394287317  1.0000
  C   C11       1.0  0.2787031061592373  0.08104076803588747  0.9692782699181931  1.0000
  C   C12       1.0  0.7212968936047013  0.9189592317730053  0.030721730277575986  1.0000
  C   C13       1.0  0.18856031954480754  0.1790806615588697  0.9518625227823807  1.0000
  C   C14       1.0  0.8114396802191309  0.8209193382500231  0.04813747741338827  1.0000
  C   C15       1.0  0.11061291282054489  0.2391527674273054  0.03525331577031786  1.0000
  C   C16       1.0  0.8893870872452191  0.7608472334436126  0.9647466844245959  1.0000
  C   C17       1.0  0.12094886831437637  0.19893005873642333  0.13740503443837324  1.0000
  C   C18       1.0  0.8790511314495622  0.8010699410724693  0.8625949657573958  1.0000
  C   C19       1.0  0.999251671886146  0.4293052304807747  0.12424058235952355  1.0000
  C   C20       1.0  0.0007483277950640903  0.5706947699407049  0.8757594169310142  1.0000
  C   C21       1.0  0.9302252325021414  0.33700429380440616  0.19117696288902258  1.0000
  C   C22       1.0  0.0697747687431336  0.6629957070759824  0.8088230373151686  1.0000
  C   C23       1.0  0.7913727821704538  0.3335163602659736  0.22775768068185975  1.0000
  C   C24       1.0  0.20862721720893077  0.6664836390934809  0.7722423186095334  1.0000
  N   N1        1.0  0.032895099425487205  0.24785130602464092  0.21719759096303987  1.0000
  N   N2        1.0  0.9671049003384512  0.7521486937842518  0.7828024092327291  1.0000
  O   O1        1.0  0.022854305314614024  0.3325215795430404  0.015820613298910945  1.0000
  O   O2        1.0  0.9771456947511497  0.6674784213278775  0.9841793868960027  1.0000
  I   I1        1.0  0.6435098688968501  0.4693611775970039  0.20482570881120762  1.0000
  I   I2        1.0  0.3564901311689138  0.530638823273914  0.7951742913837062  1.0000
  I   I3        1.0  0.41846606565037425  0.7013210079666784  0.15139090635307845  1.0000
  I   I4        1.0  0.5815339337290105  0.2986789913927761  0.8486090929383149  1.0000
  I   I5        1.0  0.6481422045323021  0.9648112676659497  0.3661351921274525  1.0000
  I   I6        1.0  0.351857795148908  0.03518873275552987  0.6338648071630854  1.0000
  I   I7        1.0  0.8783426266203426  0.23784603939643456  0.5819242543477283  1.0000
  I   I8        1.0  0.12165737314359598  0.7621539604124581  0.4180757458480407  1.0000
  I   I9        1.0  0.38861965174427676  0.5778983019968748  0.47363449006984193  1.0000
  I   I10       1.0  0.6113803483214871  0.4221016988740431  0.5263655101250717  1.0000
