data_image0
_chemical_formula_structural       H100C40N12O30P4Cl5
_chemical_formula_sum              "H100 C40 N12 O30 P4 Cl5"
_cell_length_a       12.680926006964208
_cell_length_b       12.659632468608997
_cell_length_c       12.877822040778616
_cell_angle_alpha    96.43154357531087
_cell_angle_beta     118.81345534717511
_cell_angle_gamma    108.34814257165937

_space_group_name_H-M_alt    "P 1"
_space_group_IT_number       1

loop_
  _space_group_symop_operation_xyz
  'x, y, z'

loop_
  _atom_site_type_symbol
  _atom_site_label
  _atom_site_symmetry_multiplicity
  _atom_site_fract_x
  _atom_site_fract_y
  _atom_site_fract_z
  _atom_site_occupancy
  H   H1        1.0  0.19696755287293055  0.3933743558377342  0.4164221621662093  1.0000
  H   H2        1.0  0.8030324470441775  0.6066256444484746  0.5835778381462817  1.0000
  H   H3        1.0  0.2250842017787236  0.48484539699899604  0.5327931577820155  1.0000
  H   H4        1.0  0.7749157984499772  0.5151546030580859  0.46720684163693127  1.0000
  H   H5        1.0  0.4134575038664043  0.3178814051352294  0.7319737915470447  1.0000
  H   H6        1.0  0.5865424955451272  0.6821185948900496  0.2680262078319902  1.0000
  H   H7        1.0  0.3582914087562663  0.3743007229673081  0.6245125070509668  1.0000
  H   H8        1.0  0.6417085919780112  0.6256992773507037  0.37548749330143605  1.0000
  H   H9        1.0  0.6171543722486021  0.9864412663424883  0.9089275850487766  1.0000
  H   H10       1.0  0.38284562766850594  0.013558733943720409  0.09107241526371448  1.0000
  H   H11       1.0  0.5027083351431989  0.03105479860522236  0.8798364999745946  1.0000
  H   H12       1.0  0.4972916653386238  0.9689452008755711  0.12016350035964125  1.0000
  H   H13       1.0  0.3127122994596486  0.7989144010399115  0.5947470754157267  1.0000
  H   H14       1.0  0.6872877002050046  0.2010855984090788  0.4052529248785973  1.0000
  H   H15       1.0  0.4267208181217026  0.9051112941425125  0.7180777320343641  1.0000
  H   H16       1.0  0.5732791812898288  0.09488870588276642  0.28192226734467074  1.0000
  H   H17       1.0  0.4973726530299594  0.00469496719134863  0.3823387957997497  1.0000
  H   H18       1.0  0.5026273474518633  0.9953050322894449  0.6176612045344861  1.0000
  H   H19       1.0  0.35147482483138365  0.9058892900198092  0.27679292849842513  1.0000
  H   H20       1.0  0.6485251748332698  0.09411070942918107  0.7232070717958988  1.0000
  H   H21       1.0  0.9424808135370673  0.2638595414789175  0.25206050149492204  1.0000
  H   H22       1.0  0.05751918587446423  0.7361404585463616  0.747939497884113  1.0000
  H   H23       1.0  0.8506652288660909  0.2721025518268589  0.31532819484585334  1.0000
  H   H24       1.0  0.14933477029298578  0.7278974473612018  0.6846718045150145  1.0000
  H   H25       1.0  0.6043750057214085  0.25156404567665036  0.9103741751963015  1.0000
  H   H26       1.0  0.3956249941956996  0.7484359546095584  0.08962582511618947  1.0000
  H   H27       1.0  0.7510762361252366  0.25471951228890527  0.9378400604303533  1.0000
  H   H28       1.0  0.2489237641034643  0.7452804877681769  0.062159938988593566  1.0000
  H   H29       1.0  0.8683370954257087  0.3278631272759619  0.8682082053137722  1.0000
  H   H30       1.0  0.13166290449139928  0.6721368730102468  0.1317917949987187  1.0000
  H   H31       1.0  0.9084207671545451  0.46951780235956064  0.859941494027318  1.0000
  H   H32       1.0  0.09157923357973229  0.5304821979584512  0.1400585063250848  1.0000
  H   H33       1.0  0.260652322892955  0.33457386837094477  0.0789928477633552  1.0000
  H   H34       1.0  0.7393476770832912  0.6654261308489189  0.9210071516374247  1.0000
  H   H35       1.0  0.36047031062535273  0.3831334897987024  0.0211888645988978  1.0000
  H   H36       1.0  0.6395296887861787  0.6168665102265765  0.9788111347801371  1.0000
  H   H37       1.0  0.34708068898861383  0.3465933621344262  0.2824446056447084  1.0000
  H   H38       1.0  0.6529193109284942  0.6534066381517825  0.7175553946677825  1.0000
  H   H39       1.0  0.5995458482945407  0.45893812485860946  0.4567810531668755  1.0000
  H   H40       1.0  0.40045415137011264  0.5410618745903809  0.5432189471274486  1.0000
  H   H41       1.0  0.3368381440140369  0.018061341286966428  0.3950218158658088  1.0000
  H   H42       1.0  0.6631618559030713  0.9819386589992423  0.6049781844466822  1.0000
  H   H43       1.0  0.1891280451507112  0.011731701629008249  0.2852267180676344  1.0000
  H   H44       1.0  0.8108719542608203  0.9882682983962706  0.7147732813114005  1.0000
  H   H45       1.0  0.8152128857385365  0.04812711927018763  0.16889828060107642  1.0000
  H   H46       1.0  0.18478711449016433  0.9518728807868944  0.8311017188178704  1.0000
  H   H47       1.0  0.7428696222231537  0.061212966386327304  0.25648256557377885  1.0000
  H   H48       1.0  0.25713037851112386  0.9387870339316846  0.7435174347786241  1.0000
  H   H49       1.0  0.6440878247480418  0.1748603619702979  0.11930860592355001  1.0000
  H   H50       1.0  0.3559121751690662  0.8251396383159109  0.880691394388941  1.0000
  H   H51       1.0  0.7304521033650145  0.1500351194701974  0.05121950235579208  1.0000
  H   H52       1.0  0.2695478957940622  0.8499648797178632  0.9487804970050758  1.0000
  H   H53       1.0  0.7077654067940816  0.375476906919572  0.11807345555690307  1.0000
  H   H54       1.0  0.29223459312302635  0.6245230933666367  0.8819265447555878  1.0000
  H   H55       1.0  0.8654477703657076  0.3888450182715572  0.14835365913680484  1.0000
  H   H56       1.0  0.13455222955140028  0.6111549820146515  0.851646341175686  1.0000
  H   H57       1.0  0.8227214342200235  0.47984969982487696  0.984480087968057  1.0000
  H   H58       1.0  0.17727856651425378  0.5201503004931348  0.01551991238434583  1.0000
  H   H59       1.0  0.6470559806879335  0.43660906129189686  0.9043270195284959  1.0000
  H   H60       1.0  0.35294401922917457  0.5633909389943119  0.09567298078399511  1.0000
  H   H61       1.0  0.6308629627205932  0.28502672807568147  0.7317750124209668  1.0000
  H   H62       1.0  0.3691370380136843  0.7149732722423304  0.26822498793143623  1.0000
  H   H63       1.0  0.6839546844221974  0.4354789993224831  0.7407863655149515  1.0000
  H   H64       1.0  0.31604531631208005  0.5645210009955287  0.25921363483745136  1.0000
  H   H65       1.0  0.8057585837237347  0.3926629694709572  0.63682334103152  1.0000
  H   H66       1.0  0.1942414170105429  0.6073370308470547  0.36317665932088283  1.0000
  H   H67       1.0  0.7485311255783526  0.24676857282711423  0.6422943825575496  1.0000
  H   H68       1.0  0.2514688751559247  0.7532314274908976  0.3577056177948533  1.0000
  H   H69       1.0  0.04812778206771426  0.4564819753060604  0.6498861556426675  1.0000
  H   H70       1.0  0.9518722178493938  0.5435180249801482  0.3501138446698234  1.0000
  H   H71       1.0  0.254320717603156  0.3949157545605801  0.7730212248439227  1.0000
  H   H72       1.0  0.7456792831311214  0.6050842457574318  0.22697877550848022  1.0000
  H   H73       1.0  0.12453342847398823  0.1527022775511709  0.9119800172935028  1.0000
  H   H74       1.0  0.8754665714431198  0.8472977227350378  0.08801998301898828  1.0000
  H   H75       1.0  0.2422346972025986  0.18774239646771967  0.8668738927402256  1.0000
  H   H76       1.0  0.7577653019564781  0.8122576027203409  0.13312610662064225  1.0000
  H   H77       1.0  0.45398157673088335  0.2556415010153154  0.06942632380484902  1.0000
  H   H78       1.0  0.5460184232453626  0.7443584982045482  0.9305736755959307  1.0000
  H   H79       1.0  0.3350643079509985  0.1693955244434821  0.09544152281795515  1.0000
  H   H80       1.0  0.664935692783279  0.8306044758745298  0.9045584775344477  1.0000
  H   H81       1.0  0.5766115529337281  0.31967102887020454  0.2900160847725063  1.0000
  H   H82       1.0  0.42338844698337996  0.6803289714160041  0.7099839155399846  1.0000
  H   H83       1.0  0.5202716042448167  0.4311143475632514  0.2503780543870328  1.0000
  H   H84       1.0  0.47972839648946086  0.5688856527547606  0.7496219459653701  1.0000
  H   H85       1.0  0.454211717707606  0.1676674472817095  0.33956935096342444  1.0000
  H   H86       1.0  0.5457882830266714  0.8323325530363024  0.6604306493889786  1.0000
  H   H87       1.0  0.29020255225838537  0.14737381011565778  0.22116839577742797  1.0000
  H   H88       1.0  0.709797448475892  0.852626190202354  0.7788316045749748  1.0000
  H   H89       1.0  0.40994081611953775  0.22774816789332591  0.5039103436610844  1.0000
  H   H90       1.0  0.5900591837975703  0.7722518323928826  0.4960896566514064  1.0000
  H   H91       1.0  0.25198294288986595  0.21509866795865473  0.3839047278306862  1.0000
  H   H92       1.0  0.7480170570272422  0.7849013323275539  0.6160952724818047  1.0000
  H   H93       1.0  0.3047634056651832  0.0501799114988047  0.5635487800826109  1.0000
  H   H94       1.0  0.6952365948166396  0.9498200879819889  0.43645122025162497  1.0000
  H   H95       1.0  0.17238480729224867  0.9246801099513202  0.43502110081173273  1.0000
  H   H96       1.0  0.8276151923724047  0.07531988949767032  0.5649788994825913  1.0000
  H   H97       1.0  0.20739803905820686  0.17392923170155766  0.6517329728923018  1.0000
  H   H98       1.0  0.7926019603533246  0.8260707683237213  0.3482670264867331  1.0000
  H   H99       1.0  0.9868942886369831  0.21933238117063036  0.5328381462932433  1.0000
  H   H100      1.0  0.013105711280124785  0.7806676191155782  0.46716185401924754  1.0000
  C   C1        1.0  0.8314965927368022  0.10084275052811581  0.25350486261781774  1.0000
  C   C2        1.0  0.16850340642227454  0.8991572486599446  0.7464951367430501  1.0000
  C   C3        1.0  0.7361772535201342  0.212929933525807  0.12177666852567946  1.0000
  C   C4        1.0  0.26382274639697384  0.7870700667604017  0.8782233317868116  1.0000
  C   C5        1.0  0.7593084086921659  0.3305212205663578  0.09648638723006793  1.0000
  C   C6        1.0  0.2406915904669108  0.6694787786217027  0.9035136121308  1.0000
  C   C7        1.0  0.7243745555419073  0.4086543907715022  0.915445167959336  1.0000
  C   C8        1.0  0.275625444122746  0.5913456086774882  0.08455483233498798  1.0000
  C   C9        1.0  0.7092524669151707  0.37374934982663804  0.790447772192791  1.0000
  C   C10       1.0  0.2907475338191066  0.6262506504913739  0.20955222815961191  1.0000
  C   C11       1.0  0.8297956116318724  0.33554785787430524  0.6940018283506663  1.0000
  C   C12       1.0  0.17020438777965896  0.6644521421509737  0.30599817102836857  1.0000
  C   C13       1.0  0.9593557729933607  0.33715907230692127  0.7256803638082339  1.0000
  C   C14       1.0  0.040644226671292465  0.6628409271420691  0.2743196364860901  1.0000
  C   C15       1.0  0.05454872043424595  0.3972120592515525  0.7051393307393953  1.0000
  C   C16       1.0  0.9454512797944548  0.6027879408055294  0.2948606686795515  1.0000
  C   C17       1.0  0.16069497667888918  0.363340927281599  0.7667311653427709  1.0000
  C   C18       1.0  0.8393050232382188  0.6366590730046098  0.23326883496972017  1.0000
  C   C19       1.0  0.12455187557852898  0.28472294191718106  0.8216647634376999  1.0000
  C   C20       1.0  0.8754481238330025  0.7152770581080979  0.17833523594133502  1.0000
  C   C21       1.0  0.19367660543162157  0.22356939570707068  0.9032136628036237  1.0000
  C   C22       1.0  0.8063233953026557  0.776430604610941  0.09678633754877915  1.0000
  C   C23       1.0  0.39494329692627955  0.2600771650096401  0.10874272202526432  1.0000
  C   C24       1.0  0.6050567027383739  0.7399228344393504  0.8912572782690596  1.0000
  C   C25       1.0  0.488436167210969  0.3378200766753117  0.2442864664647972  1.0000
  C   C26       1.0  0.5115638330177319  0.6621799233817703  0.7557135329541497  1.0000
  C   C27       1.0  0.37545857782920145  0.19739662133347377  0.31714204957154485  1.0000
  C   C28       1.0  0.6245414220879065  0.8026033789527349  0.6828579507409461  1.0000
  C   C29       1.0  0.32867539864681145  0.18259477682268646  0.4056267944575979  1.0000
  C   C30       1.0  0.6713246020874661  0.8174052234953255  0.5943732058948051  1.0000
  C   C31       1.0  0.22020916906174054  0.0210051566609896  0.46650028476583305  1.0000
  C   C32       1.0  0.7797908316725369  0.9789948436570223  0.53349971558657  1.0000
  C   C33       1.0  0.12848017520035185  0.07159931722578086  0.46205238257130765  1.0000
  C   C34       1.0  0.8715198247167563  0.928400683060428  0.5379476177411833  1.0000
  C   C35       1.0  0.13110563330481215  0.14301382153363562  0.5527830278983396  1.0000
  C   C36       1.0  0.8688943666122959  0.8569861787525731  0.4472169724141515  1.0000
  C   C37       1.0  0.01623428080694686  0.16453783292560423  0.4912536677972543  1.0000
  C   C38       1.0  0.9837657196748757  0.8354621665551892  0.5087463325369815  1.0000
  C   C39       1.0  0.9504978715735644  0.10643367051878116  0.3657177787840315  1.0000
  C   C40       1.0  0.04950212916071323  0.8935663297992308  0.6342822215683714  1.0000
  N   N1        1.0  0.8482835520250108  0.220890634672697  0.24311880526991858  1.0000
  N   N2        1.0  0.1517164478920974  0.7791093656135117  0.7568811950425725  1.0000
  N   N3        1.0  0.7080832758449718  0.30584651891643205  0.9616278351092912  1.0000
  N   N4        1.0  0.29191672438372906  0.69415348114065  0.03837216430965564  1.0000
  N   N5        1.0  0.8375358934970176  0.3788300061135417  0.8116020522099219  1.0000
  N   N6        1.0  0.162464105662059  0.6211699930745189  0.18839794715094596  1.0000
  N   N7        1.0  0.30265158683867965  0.30922992097621116  0.03118054359000044  1.0000
  N   N8        1.0  0.6973484130784283  0.6907700793099976  0.9688194567224905  1.0000
  N   N9        1.0  0.4285931805470154  0.32126836079282906  0.32120757630325436  1.0000
  N   N10       1.0  0.5714068193700927  0.6787316394933797  0.6787924240092367  1.0000
  N   N11       1.0  0.2681694788344338  0.05428954309325069  0.38437805202054004  1.0000
  N   N12       1.0  0.7318305216473888  0.9457104563875428  0.6156219483136959  1.0000
  O   O1        1.0  0.001063691628955906  0.26777196175209234  0.7971067562888295  1.0000
  O   O2        1.0  0.9989363091053216  0.7322280385659196  0.20289324406357348  1.0000
  O   O3        1.0  0.017980211796176922  0.04852416316708398  0.3467167304182027  1.0000
  O   O4        1.0  0.9820197873628997  0.9514758360209765  0.6532832689426652  1.0000
  O   O5        1.0  0.8982718685397442  0.03703316156348069  0.8571670435145844  1.0000
  O   O6        1.0  0.10172813087178748  0.9629668384617983  0.1428329558644507  1.0000
  O   O7        1.0  0.788505436925439  0.17124922397339618  0.8711556135870563  1.0000
  O   O8        1.0  0.21149456248609258  0.8287507760518827  0.12884438579197866  1.0000
  O   O9        1.0  0.7797808104304035  0.013240201024566836  0.9738870179784836  1.0000
  O   O10       1.0  0.2202191887286732  0.9867597981634937  0.02611298138238429  1.0000
  O   O11       1.0  0.001537358224043215  0.18532444800912445  0.06268892137113556  1.0000
  O   O12       1.0  0.9984626411874883  0.8146755520161545  0.9373110780078993  1.0000
  O   O13       1.0  0.2223921414597698  0.3599187225805507  0.1793439249994358  1.0000
  O   O14       1.0  0.777607858768931  0.6400812774765314  0.8206560744195109  1.0000
  O   O15       1.0  0.009982769291352892  0.3912871817017288  0.07651790041334852  1.0000
  O   O16       1.0  0.9900172306257552  0.6087128185844799  0.9234820998991424  1.0000
  O   O17       1.0  0.08004547157248687  0.32128090232945744  0.2689778737371323  1.0000
  O   O18       1.0  0.9199545278390445  0.6787190976958214  0.7310221256419026  1.0000
  O   O19       1.0  0.2639385660107384  0.43778392599824273  0.5085716160158734  1.0000
  O   O20       1.0  0.7360614339063697  0.5622160742879659  0.4914283842966176  1.0000
  O   O21       1.0  0.5238797047505219  0.3903625416477511  0.44926372138081194  1.0000
  O   O22       1.0  0.47612029466100947  0.6096374583775278  0.5507362779982229  1.0000
  O   O23       1.0  0.4397073764276174  0.374373488499851  0.6933260847342613  1.0000
  O   O24       1.0  0.560292623237036  0.6256265109491393  0.30667391556006274  1.0000
  O   O25       1.0  0.5195176578579194  0.9605811457743995  0.872358483354127  1.0000
  O   O26       1.0  0.4804823426239033  0.039418853706393864  0.12764151698010895  1.0000
  O   O27       1.0  0.37665070796012307  0.8813591245620475  0.6243621301731613  1.0000
  O   O28       1.0  0.6233492919569851  0.11864087572416127  0.37563787013932964  1.0000
  O   O29       1.0  0.41677126270251375  0.9434048085816176  0.3689533376853373  1.0000
  O   O30       1.0  0.583228737779309  0.05659519089917593  0.6310466626488986  1.0000
  P   P1        1.0  0.8604842773872505  0.09631723576032071  0.9348459096168173  1.0000
  P   P2        1.0  0.13951572309457205  0.9036827637204728  0.0651540907174186  1.0000
  P   P3        1.0  0.07999453811995733  0.32105411644694354  0.14922861150673875  1.0000
  P   P4        1.0  0.9200054621087436  0.6789458836101386  0.8507713879122081  1.0000
  Cl  Cl1       1.0  0.1844211227931906  0.6255570304129581  0.5835647817071306  1.0000
  Cl  Cl2       1.0  0.815578876618341  0.37444296961232093  0.4164352176719044  1.0000
  Cl  Cl3       1.0  0.41290695689015394  0.16167246681129785  0.8246671526620959  1.0000
  Cl  Cl4       1.0  0.5870930427744995  0.8383275326376926  0.17533284763222798  1.0000
  Cl  Cl5       1.0  0.5000000004867435  0.5000000003829497  4.670624650449607e-10  1.0000
