data_image0
_chemical_formula_structural       H80C112P2Br10
_chemical_formula_sum              "H80 C112 P2 Br10"
_cell_length_a       15.138982589063271
_cell_length_b       8.48687809353146
_cell_length_c       18.375266426128242
_cell_angle_alpha    90.0
_cell_angle_beta     95.70251060344837
_cell_angle_gamma    90.0

_space_group_name_H-M_alt    "P 1"
_space_group_IT_number       1

loop_
  _space_group_symop_operation_xyz
  'x, y, z'

loop_
  _atom_site_type_symbol
  _atom_site_label
  _atom_site_symmetry_multiplicity
  _atom_site_fract_x
  _atom_site_fract_y
  _atom_site_fract_z
  _atom_site_occupancy
  H   H1        1.0  0.9332065135014255  0.09367558379399184  0.8408022651049614  1.0000
  H   H2        1.0  0.5667934866560732  0.09367558379399184  0.6591977345987583  1.0000
  H   H3        1.0  0.06679348662465279  0.9063244157898999  0.1591977348798223  1.0000
  H   H4        1.0  0.4332065134700051  0.9063244157898999  0.34080226538602537  1.0000
  H   H5        1.0  0.8390710255684934  0.20184900161411157  0.7357530363382668  1.0000
  H   H6        1.0  0.66092897399143  0.20184900161411157  0.7642469639101103  1.0000
  H   H7        1.0  0.16092897389677224  0.7981509979697801  0.26424696364426264  1.0000
  H   H8        1.0  0.3390710261346482  0.7981509979697801  0.23575303607467335  1.0000
  H   H9        1.0  0.8305684956664597  0.4937887376035355  0.7155141015421248  1.0000
  H   H10       1.0  0.669431504491039  0.4937887376035355  0.7844858981615948  1.0000
  H   H11       1.0  0.16943150445961858  0.5062112619803562  0.28448589844265876  1.0000
  H   H12       1.0  0.33056849563503937  0.5062112619803562  0.21551410182318886  1.0000
  H   H13       1.0  0.9139729131859385  0.6734209619855445  0.8032886412243231  1.0000
  H   H14       1.0  0.5860270870347978  0.6734209619855445  0.6967113590263081  1.0000
  H   H15       1.0  0.08602708694013991  0.3265790375983472  0.19671135876046045  1.0000
  H   H16       1.0  0.41397291309128054  0.3265790375983472  0.3032886409584755  1.0000
  H   H17       1.0  0.007435933256212174  0.5649156824408942  0.9109849600386243  1.0000
  H   H18       1.0  0.49256406646747924  0.5649156824408942  0.5890150402031482  1.0000
  H   H19       1.0  0.9925640668698661  0.4350843171429975  0.08901503994615939  1.0000
  H   H20       1.0  0.5074359329977866  0.4350843171429975  0.4109849597793813  1.0000
  H   H21       1.0  0.5897334593250558  0.5366968866292123  0.032791589309935344  1.0000
  H   H22       1.0  0.9102665405425969  0.5366968866292123  0.46720841041560535  1.0000
  H   H23       1.0  0.41026654080102254  0.46330311295467935  0.9672084106748482  1.0000
  H   H24       1.0  0.08973345958348145  0.46330311295467935  0.5327915895691784  1.0000
  H   H25       1.0  0.7023069903568819  0.6206506776637576  0.9510603829625431  1.0000
  H   H26       1.0  0.7976930098006167  0.6206506776637576  0.5489396167411763  1.0000
  H   H27       1.0  0.2976930097691963  0.3793493230984237  0.0489396170222404  1.0000
  H   H28       1.0  0.20230699032546154  0.3793493230984237  0.45106038324360725  1.0000
  H   H29       1.0  0.7796849755108805  0.4207009975460024  0.8812943152874148  1.0000
  H   H30       1.0  0.7203150246466182  0.4207009975460024  0.6187056844163049  1.0000
  H   H31       1.0  0.22031502461519784  0.5792990020378893  0.11870568469736896  1.0000
  H   H32       1.0  0.2796849754794601  0.5792990020378893  0.38129431556847865  1.0000
  H   H33       1.0  0.741725348205673  0.13737303130212308  0.8911613620991725  1.0000
  H   H34       1.0  0.7582746519518259  0.13737303130212308  0.6088386376045469  1.0000
  H   H35       1.0  0.25827465192040533  0.8626269694600581  0.10883863788561099  1.0000
  H   H36       1.0  0.2417253481742526  0.8626269694600581  0.39116136238023663  1.0000
  H   H37       1.0  0.6321429531269765  0.05175174371065353  0.9755289648890235  1.0000
  H   H38       1.0  0.8678570470937595  0.05175174371065353  0.5244710353616079  1.0000
  H   H39       1.0  0.3678570469991017  0.948248255873238  0.02447103509576023  1.0000
  H   H40       1.0  0.13214295303231868  0.948248255873238  0.4755289646231757  1.0000
  H   H41       1.0  0.6368349814003329  0.20802491688264232  0.2031842446608396  1.0000
  H   H42       1.0  0.8631650184673199  0.20802491688264232  0.29681575506470104  1.0000
  H   H43       1.0  0.36316501872574536  0.7919750827012493  0.796815755323944  1.0000
  H   H44       1.0  0.1368349816587586  0.7919750827012493  0.7031842449200826  1.0000
  H   H45       1.0  0.5565072415989747  0.011558276072654462  0.27088576875241493  1.0000
  H   H46       1.0  0.9434927583319154  0.011558276072654462  0.22911423152003746  1.0000
  H   H47       1.0  0.4434927578662909  0.9884417235112372  0.7291142312301145  1.0000
  H   H48       1.0  0.05650724179416295  0.9884417235112372  0.7708857684647461  1.0000
  H   H49       1.0  0.5606458335651036  0.02850471838217918  0.40698294610169294  1.0000
  H   H50       1.0  0.9393541663025491  0.02850471838217918  0.0930170536238478  1.0000
  H   H51       1.0  0.43935416656097476  0.9714952812017124  0.5930170538830907  1.0000
  H   H52       1.0  0.06064583316271661  0.9714952812017124  0.9069829463586817  1.0000
  H   H53       1.0  0.6422275713562601  0.24653195402850217  0.4741041646690265  1.0000
  H   H54       1.0  0.8577724285113926  0.24653195402850217  0.025895835056514188  1.0000
  H   H55       1.0  0.3577724287698182  0.7534680455553895  0.5258958353157571  1.0000
  H   H56       1.0  0.14222757161468574  0.7534680455553895  0.9741041649282695  1.0000
  H   H57       1.0  0.7229376964948243  0.44408237852179877  0.4072249970840279  1.0000
  H   H58       1.0  0.7770623033728284  0.44408237852179877  0.09277500264151281  1.0000
  H   H59       1.0  0.27706230363125406  0.555917621062093  0.5927750029007557  1.0000
  H   H60       1.0  0.22293769675324995  0.555917621062093  0.9072249973432708  1.0000
  H   H61       1.0  0.5557146520062564  0.5039838198288766  0.21786156976406382  1.0000
  H   H62       1.0  0.9442853478613962  0.5039838198288766  0.28213842996147687  1.0000
  H   H63       1.0  0.44428534811982195  0.4960161809333045  0.7821384302207197  1.0000
  H   H64       1.0  0.055714652264682044  0.4960161809333045  0.7178615700233067  1.0000
  H   H65       1.0  0.46710546281956977  0.7039112208473074  0.14458248501051818  1.0000
  H   H66       1.0  0.032894537211850663  0.7039112208473074  0.35541751470841776  1.0000
  H   H67       1.0  0.5328945373065086  0.2960887787365842  0.8554175149742654  1.0000
  H   H68       1.0  0.9671054622534151  0.2960887787365842  0.6445824852741117  1.0000
  H   H69       1.0  0.542411934325498  0.9121261345676832  0.0782174511748751  1.0000
  H   H70       1.0  0.9575880656053922  0.9121261345676832  0.42178254909757734  1.0000
  H   H71       1.0  0.4575880658005803  0.08787386501620843  0.9217825488099085  1.0000
  H   H72       1.0  0.04241193452068616  0.08787386501620843  0.5782174508872062  1.0000
  H   H73       1.0  0.7076181720452803  0.9197117083547119  0.08411134698004664  1.0000
  H   H74       1.0  0.7923818278856098  0.9197117083547119  0.41588865329240576  1.0000
  H   H75       1.0  0.292381828080798  0.08028829122917977  0.9158886530047369  1.0000
  H   H76       1.0  0.2076181715796559  0.08028829122917977  0.5841113466901238  1.0000
  H   H77       1.0  0.7971222696702547  0.7214191664502084  0.15733128027287976  1.0000
  H   H78       1.0  0.7028777301973981  0.7214191664502084  0.3426687194526609  1.0000
  H   H79       1.0  0.20287773045582363  0.2785808331336833  0.8426687197119038  1.0000
  H   H80       1.0  0.2971222699286803  0.2785808331336833  0.6573312805321226  1.0000
  C   C1        1.0  0.08355035681148881  0.21670639659614926  0.9955839350512957  1.0000
  C   C2        1.0  0.4164496428489651  0.21670639659614926  0.5044160646435649  1.0000
  C   C3        1.0  0.9164496433145896  0.783293604166032  0.004416064933487901  1.0000
  C   C4        1.0  0.5835503566163006  0.783293604166032  0.49558393533896444  1.0000
  C   C5        1.0  0.034122459452157965  0.2629674522721159  0.9434637917777378  1.0000
  C   C6        1.0  0.4658775408691086  0.2629674522721159  0.556536207919377  1.0000
  C   C7        1.0  0.9658775406739203  0.7370325473117758  0.056536208207045774  1.0000
  C   C8        1.0  0.5341224592569699  0.7370325473117758  0.4434637920654066  1.0000
  C   C9        1.0  0.9787707024683967  0.32212612103898197  0.8824716192648011  1.0000
  C   C10       1.0  0.5212292976891021  0.32212612103898197  0.6175283804389183  1.0000
  C   C11       1.0  0.021229297657681626  0.6778738797231993  0.11752838071998238  1.0000
  C   C12       1.0  0.4787707024369763  0.6778738797231993  0.3824716195458653  1.0000
  C   C13       1.0  0.9302755448605681  0.22071788817465426  0.8323932745788322  1.0000
  C   C14       1.0  0.5697244553601682  0.22071788817465426  0.6676067256717991  1.0000
  C   C15       1.0  0.06972445526551029  0.779282112587527  0.16760672540595142  1.0000
  C   C16       1.0  0.4302755447659101  0.779282112587527  0.3323932743129845  1.0000
  C   C17       1.0  0.8771764804837536  0.2824959759734662  0.7728749223351749  1.0000
  C   C18       1.0  0.622823519673745  0.2824959759734662  0.7271250773685446  1.0000
  C   C19       1.0  0.12282351964232475  0.7175040247887151  0.22712507764960874  1.0000
  C   C20       1.0  0.37717648045233315  0.7175040247887151  0.2728749226162389  1.0000
  C   C21       1.0  0.8719217783806861  0.4452603051857412  0.7619892052151584  1.0000
  C   C22       1.0  0.6280782211792376  0.4452603051857412  0.7380107950332185  1.0000
  C   C23       1.0  0.12807822108457964  0.5547396943981504  0.23801079476737091  1.0000
  C   C24       1.0  0.3719217782860282  0.5547396943981504  0.2619892049493108  1.0000
  C   C25       1.0  0.9193040679353893  0.5466184595647513  0.8114255746722224  1.0000
  C   C26       1.0  0.5806959322221095  0.5466184595647513  0.6885744250314972  1.0000
  C   C27       1.0  0.0806959321906891  0.4533815400191404  0.18857442531256124  1.0000
  C   C28       1.0  0.41930406790396885  0.4533815400191404  0.31142557495328643  1.0000
  C   C29       1.0  0.9717308821940938  0.48636621906305916  0.8715533029283782  1.0000
  C   C30       1.0  0.5282691180266424  0.48636621906305916  0.6284466973222531  1.0000
  C   C31       1.0  0.028269117931984514  0.5136337805208325  0.12844669705640546  1.0000
  C   C32       1.0  0.4717308820994359  0.5136337805208325  0.3715533026625305  1.0000
  C   C33       1.0  0.48591126419585334  0.20681089449579398  0.0994172319644284  1.0000
  C   C34       1.0  0.014088735835567086  0.20681089449579398  0.4005827677545075  1.0000
  C   C35       1.0  0.5140887359302251  0.7931891050880977  0.9005827680203552  1.0000
  C   C36       1.0  0.9859112642905112  0.7931891050880977  0.599417232230276  1.0000
  C   C37       1.0  0.5415056450303702  0.24226935833650406  0.05855729681616965  1.0000
  C   C38       1.0  0.9584943548372825  0.24226935833650406  0.44144270290937104  1.0000
  C   C39       1.0  0.45849435509570813  0.7577306424256772  0.9414427031686139  1.0000
  C   C40       1.0  0.04150564528879584  0.7577306424256772  0.5585572970754126  1.0000
  C   C41       1.0  0.6050315100970421  0.2885491370338513  0.010954253865951774  1.0000
  C   C42       1.0  0.894968489833848  0.2885491370338513  0.4890457464065006  1.0000
  C   C43       1.0  0.3949684900290363  0.7114508625500403  0.9890457461188319  1.0000
  C   C44       1.0  0.10503151029223026  0.7114508625500403  0.510954253578283  1.0000
  C   C45       1.0  0.6243356898636961  0.4496703013689698  0.002658974219778314  1.0000
  C   C46       1.0  0.875664310067194  0.4496703013689698  0.49734102605267416  1.0000
  C   C47       1.0  0.37566430960156955  0.5503296982149218  0.9973410257627511  1.0000
  C   C48       1.0  0.12433569005888431  0.5503296982149218  0.5026589739321095  1.0000
  C   C49       1.0  0.6871793897280797  0.4960564430881552  0.9566054943493187  1.0000
  C   C50       1.0  0.8128206104926564  0.4960564430881552  0.5433945059013124  1.0000
  C   C51       1.0  0.3128206103979986  0.5039435564957365  0.04339450563546474  1.0000
  C   C52       1.0  0.1871793896334218  0.5039435564957365  0.4566054940834712  1.0000
  C   C53       1.0  0.7303818171404284  0.38393462284835883  0.9171466921619503  1.0000
  C   C54       1.0  0.7696181830803078  0.38393462284835883  0.5828533080886811  1.0000
  C   C55       1.0  0.26961818298564993  0.6160653779138223  0.08285330782283336  1.0000
  C   C56       1.0  0.2303818170457705  0.6160653779138223  0.4171466918961026  1.0000
  C   C57       1.0  0.7096809270520782  0.22432150421142874  0.923403370837836  1.0000
  C   C58       1.0  0.7903190731054205  0.22432150421142874  0.5765966288658836  1.0000
  C   C59       1.0  0.2903190730740001  0.7756784953724629  0.07659662914694768  1.0000
  C   C60       1.0  0.20968092702065777  0.7756784953724629  0.42340337111890003  1.0000
  C   C61       1.0  0.6482374193718065  0.17617680418192957  0.9704446700733022  1.0000
  C   C62       1.0  0.851762580188117  0.17617680418192957  0.529555330175075  1.0000
  C   C63       1.0  0.35176258075427186  0.8238231965802517  0.02955532991148144  1.0000
  C   C64       1.0  0.1482374192771486  0.8238231965802517  0.4704446698074546  1.0000
  C   C65       1.0  0.6848151832500203  0.3394674989141011  0.30093921704430854  1.0000
  C   C66       1.0  0.8151848172784449  0.3394674989141011  0.19906078268348634  1.0000
  C   C67       1.0  0.315184816876058  0.6605325018480801  0.699060782940475  1.0000
  C   C68       1.0  0.18481518284763337  0.6605325018480801  0.8009392173012972  1.0000
  C   C69       1.0  0.6378220767302252  0.21719361933629344  0.26248461256079936  1.0000
  C   C70       1.0  0.8621779231374274  0.21719361933629344  0.23751538716474133  1.0000
  C   C71       1.0  0.36217792339585314  0.7828063814258878  0.7375153874239843  1.0000
  C   C72       1.0  0.1378220769886509  0.7828063814258878  0.7624846128200422  1.0000
  C   C73       1.0  0.5927307992988552  0.1064158704822631  0.30074535026097976  1.0000
  C   C74       1.0  0.9072692005687975  0.1064158704822631  0.19925464946456098  1.0000
  C   C75       1.0  0.40726920082722307  0.8935841302799181  0.6992546497238039  1.0000
  C   C76       1.0  0.09273079955728088  0.8935841302799181  0.8007453505202227  1.0000
  C   C77       1.0  0.5946510195910624  0.11663552358015622  0.37690276334141887  1.0000
  C   C78       1.0  0.9053489802765904  0.11663552358015622  0.12309723638412179  1.0000
  C   C79       1.0  0.40534897987420343  0.8833644771820249  0.6230972366411105  1.0000
  C   C80       1.0  0.09465101984948794  0.8833644771820249  0.8769027636006618  1.0000
  C   C81       1.0  0.6408338763241845  0.238477598911501  0.41482575479238065  1.0000
  C   C82       1.0  0.8591661236067055  0.238477598911501  0.08517424548007174  1.0000
  C   C83       1.0  0.35916612380189367  0.7615224006723907  0.5851742451924029  1.0000
  C   C84       1.0  0.14083387651937282  0.7615224006723907  0.9148257545047117  1.0000
  C   C85       1.0  0.6861214611827811  0.35057689850260965  0.3770989416727552  1.0000
  C   C86       1.0  0.8138785386848715  0.35057689850260965  0.12290105805278542  1.0000
  C   C87       1.0  0.31387853894329715  0.649423101081282  0.6229010583120284  1.0000
  C   C88       1.0  0.18612146144120675  0.649423101081282  0.877098941931998  1.0000
  C   C89       1.0  0.6818610605114974  0.5979885682425571  0.19112697083421287  1.0000
  C   C90       1.0  0.8181389394193926  0.5979885682425571  0.3088730294382395  1.0000
  C   C91       1.0  0.31813893961458084  0.40201143134133466  0.8088730291505707  1.0000
  C   C92       1.0  0.1818610607066856  0.40201143134133466  0.691126970546544  1.0000
  C   C93       1.0  0.5890500339333105  0.5933329411009212  0.18794982549581482  1.0000
  C   C94       1.0  0.9109499659975796  0.5933329411009212  0.3120501747766376  1.0000
  C   C95       1.0  0.4109499655319552  0.4066670596612601  0.8120501744867146  1.0000
  C   C96       1.0  0.08905003412849868  0.4066670596612601  0.6879498252081461  1.0000
  C   C97       1.0  0.5392515430903346  0.706753523957374  0.14693798832928712  1.0000
  C   C98       1.0  0.9607484567773181  0.706753523957374  0.3530620113962536  1.0000
  C   C99       1.0  0.4607484570357437  0.2932464756265176  0.8530620116554964  1.0000
  C   C100      1.0  0.03925154334876025  0.2932464756265176  0.6469379885885299  1.0000
  C   C101      1.0  0.5816574545792941  0.823342267084739  0.10957894164045073  1.0000
  C   C102      1.0  0.918342545351596  0.823342267084739  0.39042105863200166  1.0000
  C   C103      1.0  0.4183425448859716  0.17665773249915273  0.8904210583420786  1.0000
  C   C104      1.0  0.08165745477448229  0.17665773249915273  0.6095789413527819  1.0000
  C   C105      1.0  0.6743756376751203  0.8278638413994741  0.11276865863027669  1.0000
  C   C106      1.0  0.8256243621925323  0.8278638413994741  0.387231341095264  1.0000
  C   C107      1.0  0.32562436245095805  0.17213615936270718  0.887231341354507  1.0000
  C   C108      1.0  0.17437563793354596  0.17213615936270718  0.6127686588895196  1.0000
  C   C109      1.0  0.7247753502659574  0.7158175671959156  0.15366467902050995  1.0000
  C   C110      1.0  0.7752246503257453  0.7158175671959156  0.3463353212541966  1.0000
  C   C111      1.0  0.27522464986012096  0.28418243238797614  0.8463353209642736  1.0000
  C   C112      1.0  0.22477534980033298  0.28418243238797614  0.653664678730587  1.0000
  P   P1        1.0  0.749999999965445  0.46825923810888165  0.2500000001362262  1.0000
  P   P2        1.0  0.25000000016063323  0.53174076147501  0.7499999998485574  1.0000
  Br  Br1       1.0  0.1522283674976577  0.1523310498574687  0.07549827823373974  1.0000
  Br  Br2       1.0  0.34777163253376275  0.1523310498574687  0.4245017214851962  1.0000
  Br  Br3       1.0  0.8477716326284207  0.8476689497264229  0.924501721751044  1.0000
  Br  Br4       1.0  0.6522283675923157  0.8476689497264229  0.5754982784995873  1.0000
  Br  Br5       1.0  0.40090958006493854  0.15829186365053566  0.15849395588279047  1.0000
  Br  Br6       1.0  0.09909042002971938  0.15829186365053566  0.3415060443830572  1.0000
  Br  Br7       1.0  0.5990904201243773  0.8417081371116456  0.8415060446489049  1.0000
  Br  Br8       1.0  0.900909580096359  0.8417081371116456  0.6584939556017263  1.0000
  Br  Br9       1.0  0.250000000047329  0.08977899312360088  0.25000000013292384  1.0000
  Br  Br10      1.0  0.7500000000787495  0.9102210064602908  0.7499999998518598  1.0000
