data_image0
_chemical_formula_structural       H80C112P2I10
_chemical_formula_sum              "H80 C112 P2 I10"
_cell_length_a       16.711170833953936
_cell_length_b       16.711170833953936
_cell_length_c       8.903164190178853
_cell_angle_alpha    90.0
_cell_angle_beta     90.0
_cell_angle_gamma    90.0

_space_group_name_H-M_alt    "P 1"
_space_group_IT_number       1

loop_
  _space_group_symop_operation_xyz
  'x, y, z'

loop_
  _atom_site_type_symbol
  _atom_site_label
  _atom_site_symmetry_multiplicity
  _atom_site_fract_x
  _atom_site_fract_y
  _atom_site_fract_z
  _atom_site_occupancy
  H   H1        1.0  0.9075604534814901  0.016364137363517644  0.5401665382409834  1.0000
  H   H2        1.0  0.48363586281738125  0.907560453586434  0.5401665382409834  1.0000
  H   H3        1.0  0.5924395463578604  0.48363586313221274  0.5401665382409834  1.0000
  H   H4        1.0  0.016364137048686025  0.5924395464628044  0.5401665382409834  1.0000
  H   H5        1.0  0.09243954667041984  0.9836358626097658  0.45983346173892786  1.0000
  H   H6        1.0  0.5163641373345287  0.09243954638684936  0.45983346173892786  1.0000
  H   H7        1.0  0.4075604537940495  0.5163641368410705  0.45983346173892786  1.0000
  H   H8        1.0  0.983635863103224  0.407560453510479  0.45983346173892786  1.0000
  H   H9        1.0  0.7946612758293822  0.9405832914446377  0.6516092667817527  1.0000
  H   H10       1.0  0.5594167084996567  0.7946612761442139  0.6516092667817527  1.0000
  H   H11       1.0  0.7053387238000804  0.5594167088144882  0.6516092667817527  1.0000
  H   H12       1.0  0.9405832911298061  0.7053387241149122  0.6516092667817527  1.0000
  H   H13       1.0  0.2053387237241255  0.059416708528645626  0.34839073319815855  1.0000
  H   H14       1.0  0.4405832910538511  0.2053387238290694  0.34839073319815855  1.0000
  H   H15       1.0  0.2946612763518295  0.44058329115879497  0.34839073319815855  1.0000
  H   H16       1.0  0.05941670842370176  0.2946612758583712  0.34839073319815855  1.0000
  H   H17       1.0  0.6973476029980205  0.8699822838840023  0.48584969204225187  1.0000
  H   H18       1.0  0.6300177160602921  0.6973476027144501  0.48584969204225187  1.0000
  H   H19       1.0  0.8026523972298445  0.6300177163751237  0.48584969204225187  1.0000
  H   H20       1.0  0.8699822835691706  0.8026523969462739  0.48584969204225187  1.0000
  H   H21       1.0  0.3026523971538895  0.130017716089281  0.5141503079376595  1.0000
  H   H22       1.0  0.36998228349321577  0.30265239725883336  0.5141503079376595  1.0000
  H   H23       1.0  0.1973476029220655  0.36998228359815966  0.5141503079376595  1.0000
  H   H24       1.0  0.13001771598433715  0.1973476030270094  0.5141503079376595  1.0000
  H   H25       1.0  0.7137434655514505  0.8760696634422855  0.20862457777078094  1.0000
  H   H26       1.0  0.6239303365020088  0.71374346526788  0.20862457777078094  1.0000
  H   H27       1.0  0.7862565346764145  0.6239303362184384  0.20862457777078094  1.0000
  H   H28       1.0  0.876069663725856  0.7862565343928439  0.20862457777078094  1.0000
  H   H29       1.0  0.2862565346004595  0.12393033653099772  0.7913754222091304  1.0000
  H   H30       1.0  0.37606966364990113  0.28625653470540335  0.7913754222091304  1.0000
  H   H31       1.0  0.2137434654754955  0.37606966375484496  0.7913754222091304  1.0000
  H   H32       1.0  0.12393033642605385  0.21374346558043936  0.7913754222091304  1.0000
  H   H33       1.0  0.8233156373350731  0.9563159526770411  0.09658646427621653  1.0000
  H   H34       1.0  0.5436840472672534  0.8233156370515025  0.09658646427621653  1.0000
  H   H35       1.0  0.6766843628927919  0.5436840469836829  0.09658646427621653  1.0000
  H   H36       1.0  0.9563159529606116  0.6766843626092214  0.09658646427621653  1.0000
  H   H37       1.0  0.17668436281683692  0.04368404729624225  0.9034135357036948  1.0000
  H   H38       1.0  0.45631595288465665  0.1766843629217808  0.9034135357036948  1.0000
  H   H39       1.0  0.3233156372591181  0.4563159529896005  0.9034135357036948  1.0000
  H   H40       1.0  0.043684047191298384  0.32331563736406194  0.9034135357036948  1.0000
  H   H41       1.0  0.30526592689009635  0.8516396688404905  0.26138390579914156  1.0000
  H   H42       1.0  0.6483603317022061  0.30526592720492796  0.26138390579914156  1.0000
  H   H43       1.0  0.1947340729759709  0.6483603312087479  0.26138390579914156  1.0000
  H   H44       1.0  0.8516396687355465  0.19473407329080253  0.26138390579914156  1.0000
  H   H45       1.0  0.6947340732618137  0.14836033113279293  0.7386160941807698  1.0000
  H   H46       1.0  0.35163966844970385  0.6947340727683553  0.7386160941807698  1.0000
  H   H47       1.0  0.8052659271759391  0.35163966876453545  0.7386160941807698  1.0000
  H   H48       1.0  0.14836033141636343  0.8052659266824809  0.7386160941807698  1.0000
  H   H49       1.0  0.2342597316642687  0.9311974774693013  0.06961353028664626  1.0000
  H   H50       1.0  0.5688025224749932  0.2342597319791003  0.06961353028664626  1.0000
  H   H51       1.0  0.2657402682017986  0.5688025225799371  0.06961353028664626  1.0000
  H   H52       1.0  0.9311974779627594  0.2657402685166302  0.06961353028664626  1.0000
  H   H53       1.0  0.7657402684876413  0.06880252250398214  0.930386469693265  1.0000
  H   H54       1.0  0.43119747767691674  0.7657402679941829  0.930386469693265  1.0000
  H   H55       1.0  0.7342597319501114  0.43119747799174835  0.930386469693265  1.0000
  H   H56       1.0  0.06880252218915052  0.7342597314566531  0.930386469693265  1.0000
  H   H57       1.0  0.08504168616473914  0.9402106940749831  0.07326227912538326  1.0000
  H   H58       1.0  0.5597893058693112  0.08504168588116866  0.07326227912538326  1.0000
  H   H59       1.0  0.41495831429973024  0.559789305974255  0.07326227912538326  1.0000
  H   H60       1.0  0.9402106939700394  0.41495831401615973  0.07326227912538326  1.0000
  H   H61       1.0  0.9149583139871708  0.05978930589830009  0.926737720854528  1.0000
  H   H62       1.0  0.44021069428259874  0.9149583140921146  0.926737720854528  1.0000
  H   H63       1.0  0.5850416858521797  0.44021069399902824  0.926737720854528  1.0000
  H   H64       1.0  0.05978930618187059  0.5850416859571237  0.926737720854528  1.0000
  H   H65       1.0  0.007937147293591481  0.8705433541682623  0.2723065977682814  1.0000
  H   H66       1.0  0.6294566457760322  0.007937147010020984  0.2723065977682814  1.0000
  H   H67       1.0  0.4920628525724758  0.629456645880976  0.2723065977682814  1.0000
  H   H68       1.0  0.8705433540633183  0.4920628528873074  0.2723065977682814  1.0000
  H   H69       1.0  0.9920628528583185  0.1294566458050211  0.7276934022116298  1.0000
  H   H70       1.0  0.37054335437587776  0.9920628529632622  0.7276934022116298  1.0000
  H   H71       1.0  0.5079371469810321  0.37054335409230726  0.7276934022116298  1.0000
  H   H72       1.0  0.12945664549018948  0.5079371470859759  0.7276934022116298  1.0000
  H   H73       1.0  0.07741894783203647  0.7886072801043267  0.4637163183572674  1.0000
  H   H74       1.0  0.7113927198399679  0.07741894814686809  0.4637163183572674  1.0000
  H   H75       1.0  0.42258105203403074  0.7113927193465096  0.4637163183572674  1.0000
  H   H76       1.0  0.788607280597785  0.4225810523488624  0.4637163183572674  1.0000
  H   H77       1.0  0.9225810523198735  0.21139271986895672  0.5362836816226438  1.0000
  H   H78       1.0  0.2886072803119421  0.9225810524248174  0.5362836816226438  1.0000
  H   H79       1.0  0.5774189481178792  0.2886072806267737  0.5362836816226438  1.0000
  H   H80       1.0  0.21139271955412509  0.577418947624421  0.5362836816226438  1.0000
  C   C1        1.0  0.9897240130982473  0.08193249277872358  0.2029827128195078  1.0000
  C   C2        1.0  0.41806750740217524  0.9897240132031914  0.2029827128195078  1.0000
  C   C3        1.0  0.5102759867411033  0.41806750711860474  0.2029827128195078  1.0000
  C   C4        1.0  0.08193249246389196  0.5102759868460471  0.2029827128195078  1.0000
  C   C5        1.0  0.010275987053662674  0.9180675071945598  0.7970172871604034  1.0000
  C   C6        1.0  0.5819324927497347  0.010275986770092177  0.7970172871604034  1.0000
  C   C7        1.0  0.4897240134108066  0.5819324928546786  0.7970172871604034  1.0000
  C   C8        1.0  0.9180675076880179  0.4897240131272362  0.7970172871604034  1.0000
  C   C9        1.0  0.9353031068833815  0.03977951821447569  0.24972274828454405  1.0000
  C   C10       1.0  0.4602204819664232  0.9353031069883252  0.24972274828454405  1.0000
  C   C11       1.0  0.5646968929559691  0.4602204822812548  0.24972274828454405  1.0000
  C   C12       1.0  0.03977951789964406  0.5646968930609131  0.24972274828454405  1.0000
  C   C13       1.0  0.06469689326852855  0.9602204817588076  0.7502772516953673  1.0000
  C   C14       1.0  0.5397795181854868  0.06469689298495804  0.7502772516953673  1.0000
  C   C15       1.0  0.4353031065975386  0.5397795176920286  0.7502772516953673  1.0000
  C   C16       1.0  0.9602204822522659  0.4353031069123703  0.7502772516953673  1.0000
  C   C17       1.0  0.872316004140077  0.9929888689724494  0.31086579792081775  1.0000
  C   C18       1.0  0.5070111309718451  0.8723160044549088  0.31086579792081775  1.0000
  C   C19       1.0  0.6276839954893856  0.5070111312866767  0.31086579792081775  1.0000
  C   C20       1.0  0.9929888686576177  0.6276839958042173  0.31086579792081775  1.0000
  C   C21       1.0  0.1276839954134307  0.0070111310008340285  0.6891342020590936  1.0000
  C   C22       1.0  0.49298886918006485  0.1276839955183746  0.6891342020590936  1.0000
  C   C23       1.0  0.3723160040641222  0.49298886868660663  0.6891342020590936  1.0000
  C   C24       1.0  0.007011130895890154  0.3723160041690661  0.6891342020590936  1.0000
  C   C25       1.0  0.8641823364603866  0.9868091044968191  0.4681188452749713  1.0000
  C   C26       1.0  0.5131908954474753  0.864182336775218  0.4681188452749713  1.0000
  C   C27       1.0  0.6358176631690763  0.5131908951639048  0.4681188452749713  1.0000
  C   C28       1.0  0.9868091047803897  0.6358176634839079  0.4681188452749713  1.0000
  C   C29       1.0  0.13581766369152345  0.013190895476464178  0.5318811547049399  1.0000
  C   C30       1.0  0.48680910470443467  0.1358176631980652  0.5318811547049399  1.0000
  C   C31       1.0  0.36418233638443154  0.48680910480937856  0.5318811547049399  1.0000
  C   C32       1.0  0.013190895371520305  0.3641823364893754  0.5318811547049399  1.0000
  C   C33       1.0  0.8009566432275443  0.9438083317743476  0.5300211407092117  1.0000
  C   C34       1.0  0.5561916681699468  0.800956643542376  0.5300211407092117  1.0000
  C   C35       1.0  0.6990433564019185  0.5561916684847784  0.5300211407092117  1.0000
  C   C36       1.0  0.9438083314595159  0.6990433567167502  0.5300211407092117  1.0000
  C   C37       1.0  0.19904335632596354  0.056191668198935715  0.46997885927069966  1.0000
  C   C38       1.0  0.443808331383561  0.1990433564309074  0.46997885927069966  1.0000
  C   C39       1.0  0.3009566437499914  0.4438083314885049  0.46997885927069966  1.0000
  C   C40       1.0  0.056191668692393955  0.30095664325653315  0.46997885927069966  1.0000
  C   C41       1.0  0.746306516092422  0.9042552289028422  0.43718120511510067  1.0000
  C   C42       1.0  0.5957447710414523  0.7463065158088514  0.43718120511510067  1.0000
  C   C43       1.0  0.753693484135443  0.5957447707578817  0.43718120511510067  1.0000
  C   C44       1.0  0.9042552291864127  0.7536934838518724  0.43718120511510067  1.0000
  C   C45       1.0  0.253693484059488  0.09574477107044113  0.5628187948648107  1.0000
  C   C46       1.0  0.4042552291104577  0.2536934841644319  0.5628187948648107  1.0000
  C   C47       1.0  0.24630651601646697  0.40425522921540163  0.5628187948648107  1.0000
  C   C48       1.0  0.09574477096549727  0.24630651612141086  0.5628187948648107  1.0000
  C   C49       1.0  0.755187063215072  0.908231826384481  0.28135511111467876  1.0000
  C   C50       1.0  0.5917681735598135  0.7551870629315016  0.28135511111467876  1.0000
  C   C51       1.0  0.7448129370127928  0.591768173276243  0.28135511111467876  1.0000
  C   C52       1.0  0.9082318266680516  0.7448129367292223  0.28135511111467876  1.0000
  C   C53       1.0  0.2448129369368379  0.09176817358880231  0.7186448888652326  1.0000
  C   C54       1.0  0.4082318265920965  0.24481293704178175  0.7186448888652326  1.0000
  C   C55       1.0  0.2551870631391171  0.4082318266970404  0.7186448888652326  1.0000
  C   C56       1.0  0.09176817348385845  0.25518706324406093  0.7186448888652326  1.0000
  C   C57       1.0  0.8169571504814044  0.9528533844063869  0.21818553589552264  1.0000
  C   C58       1.0  0.5471466155379077  0.8169571501978339  0.21818553589552264  1.0000
  C   C59       1.0  0.6830428497464605  0.5471466158527393  0.21818553589552264  1.0000
  C   C60       1.0  0.9528533840915552  0.68304284946289  0.21818553589552264  1.0000
  C   C61       1.0  0.18304284967050552  0.047146615566896546  0.7818144640843887  1.0000
  C   C62       1.0  0.45285338461400226  0.18304284977544938  0.7818144640843887  1.0000
  C   C63       1.0  0.3169571504054494  0.45285338412054404  0.7818144640843887  1.0000
  C   C64       1.0  0.04714661546195268  0.3169571505103933  0.7818144640843887  1.0000
  C   C65       1.0  0.1958576173969699  0.815639145347952  0.37636269627559077  1.0000
  C   C66       1.0  0.6843608545963423  0.1958576171133994  0.37636269627559077  1.0000
  C   C67       1.0  0.3041423824690973  0.6843608547012862  0.37636269627559077  1.0000
  C   C68       1.0  0.8156391452430082  0.3041423827839289  0.37636269627559077  1.0000
  C   C69       1.0  0.8041423827549401  0.18436085462533128  0.6236373037043205  1.0000
  C   C70       1.0  0.3156391455555676  0.8041423828598839  0.6236373037043205  1.0000
  C   C71       1.0  0.6958576170844105  0.3156391452719971  0.6236373037043205  1.0000
  C   C72       1.0  0.18436085490890175  0.6958576171893543  0.6236373037043205  1.0000
  C   C73       1.0  0.24010866946330997  0.8558269775437461  0.26489573702365055  1.0000
  C   C74       1.0  0.6441730224005483  0.24010866917973947  0.26489573702365055  1.0000
  C   C75       1.0  0.25989133100115935  0.6441730225054922  0.26489573702365055  1.0000
  C   C76       1.0  0.8558269774388022  0.25989133071758885  0.26489573702365055  1.0000
  C   C77       1.0  0.7598913306885999  0.14417302242953722  0.7351042629562607  1.0000
  C   C78       1.0  0.35582697775136163  0.7598913307935439  0.7351042629562607  1.0000
  C   C79       1.0  0.7401086691507507  0.3558269774677911  0.7351042629562607  1.0000
  C   C80       1.0  0.14417302211470562  0.7401086692556944  0.7351042629562607  1.0000
  C   C81       1.0  0.2000235625658146  0.9006138789582426  0.15654078597555351  1.0000
  C   C82       1.0  0.5993861209860519  0.2000235622822441  0.15654078597555351  1.0000
  C   C83       1.0  0.29997643730025264  0.5993861210909956  0.15654078597555351  1.0000
  C   C84       1.0  0.9006138788532987  0.29997643761508425  0.15654078597555351  1.0000
  C   C85       1.0  0.7999764375860954  0.09938612101504071  0.8434592140043577  1.0000
  C   C86       1.0  0.400613878567456  0.7999764376910392  0.8434592140043577  1.0000
  C   C87       1.0  0.7000235628516573  0.40061387888228767  0.8434592140043577  1.0000
  C   C88       1.0  0.09938612129861119  0.7000235623581992  0.8434592140043577  1.0000
  C   C89       1.0  0.11645440312201767  0.905754062266269  0.15896722555799214  1.0000
  C   C90       1.0  0.5942459376780254  0.11645440343684929  0.15896722555799214  1.0000
  C   C91       1.0  0.38354559674404953  0.5942459377829694  0.15896722555799214  1.0000
  C   C92       1.0  0.9057540621613251  0.38354559705888114  0.15896722555799214  1.0000
  C   C93       1.0  0.8835455970298922  0.09424593770701435  0.8410327744219191  1.0000
  C   C94       1.0  0.40575406247388446  0.883545596536434  0.8410327744219191  1.0000
  C   C95       1.0  0.6164544034078604  0.405754062190314  0.8410327744219191  1.0000
  C   C96       1.0  0.09424593799058484  0.6164544029144022  0.8410327744219191  1.0000
  C   C97       1.0  0.0729227333257371  0.8661653813859407  0.27021952854175885  1.0000
  C   C98       1.0  0.6338346185583538  0.07292273364056873  0.27021952854175885  1.0000
  C   C99       1.0  0.4270772665403302  0.6338346186632976  0.27021952854175885  1.0000
  C   C100      1.0  0.8661653812809968  0.4270772668551618  0.27021952854175885  1.0000
  C   C101      1.0  0.9270772668261729  0.13383461858734266  0.7297804714381525  1.0000
  C   C102      1.0  0.36616538099515406  0.9270772663327147  0.7297804714381525  1.0000
  C   C103      1.0  0.5729227336115799  0.36616538130998566  0.7297804714381525  1.0000
  C   C104      1.0  0.13383461887091316  0.5729227331181216  0.7297804714381525  1.0000
  C   C105      1.0  0.11212315535218446  0.8205115449057111  0.37908195310191173  1.0000
  C   C106      1.0  0.6794884550385832  0.11212315566701608  0.37908195310191173  1.0000
  C   C107      1.0  0.38787684451388277  0.6794884551435272  0.37908195310191173  1.0000
  C   C108      1.0  0.8205115448007674  0.3878768448287144  0.37908195310191173  1.0000
  C   C109      1.0  0.8878768447997255  0.17948845506757222  0.6209180468779996  1.0000
  C   C110      1.0  0.32051154511332663  0.8878768443062673  0.6209180468779996  1.0000
  C   C111      1.0  0.6121231556380272  0.32051154482975613  0.6209180468779996  1.0000
  C   C112      1.0  0.17948845535114272  0.6121231551445689  0.6209180468779996  1.0000
  P   P1        1.0  0.2500000002322347  0.7500000000246191  0.5000000005515538  1.0000
  P   P2        1.0  0.7499999999196753  0.24999999994866423  0.5000000005515538  1.0000
  I   I1        1.0  0.08347258347744829  0.14813489570662297  0.13544694607904056  1.0000
  I   I2        1.0  0.3518651044742759  0.08347258298399005  0.13544694607904056  1.0000
  I   I3        1.0  0.4165274165985067  0.35186510457921977  0.13544694607904056  1.0000
  I   I4        1.0  0.1481348956016791  0.41652741670345056  0.13544694607904056  1.0000
  I   I5        1.0  0.9165274166744617  0.8518651042666604  0.8645530539008708  1.0000
  I   I6        1.0  0.648134895677634  0.9165274169892934  0.8645530539008708  1.0000
  I   I7        1.0  0.5834725829550012  0.6481348953940635  0.8645530539008708  1.0000
  I   I8        1.0  0.8518651045502309  0.5834725832698328  0.8645530539008708  1.0000
  I   I9        1.0  0.24999999973877643  0.24999999984372034  0.03871005438495419  1.0000
  I   I10       1.0  0.7499999998147314  0.750000000129563  0.9612899455949572  1.0000
