data_image0
_chemical_formula_structural       H40C56P2I10
_chemical_formula_sum              "H40 C56 P2 I10"
_cell_length_a       14.63459934134136
_cell_length_b       14.63459934134136
_cell_length_c       7.034296425683244
_cell_angle_alpha    90.0
_cell_angle_beta     90.0
_cell_angle_gamma    90.0

_space_group_name_H-M_alt    "P 1"
_space_group_IT_number       1

loop_
  _space_group_symop_operation_xyz
  'x, y, z'

loop_
  _atom_site_type_symbol
  _atom_site_label
  _atom_site_symmetry_multiplicity
  _atom_site_fract_x
  _atom_site_fract_y
  _atom_site_fract_z
  _atom_site_occupancy
  H   H1        1.0  0.9689782746522565  0.8797915180108978  0.6837205214212809  1.0000
  H   H2        1.0  0.8797915180108978  0.031021725256086766  0.31627947919239185  1.0000
  H   H3        1.0  0.46897827469808484  0.620208481851617  0.31627947919239185  1.0000
  H   H4        1.0  0.031021725256086766  0.12020848189744546  0.6837205214212809  1.0000
  H   H5        1.0  0.620208481851617  0.5310217252102584  0.6837205214212809  1.0000
  H   H6        1.0  0.12020848189744546  0.9689782746522565  0.31627947919239185  1.0000
  H   H7        1.0  0.5310217252102584  0.3797915180567262  0.31627947919239185  1.0000
  H   H8        1.0  0.3797915180567262  0.46897827469808484  0.6837205214212809  1.0000
  H   H9        1.0  0.8350999043394262  0.8543030395565357  0.4753439317387345  1.0000
  H   H10       1.0  0.8543030395565357  0.164900095568917  0.5246560688749383  1.0000
  H   H11       1.0  0.33509990438525467  0.6456969603059791  0.5246560688749383  1.0000
  H   H12       1.0  0.164900095568917  0.1456969603518075  0.4753439317387345  1.0000
  H   H13       1.0  0.6456969603059791  0.6649000962064008  0.4753439317387345  1.0000
  H   H14       1.0  0.1456969603518075  0.8350999043394262  0.5246560688749383  1.0000
  H   H15       1.0  0.6649000962064008  0.35430303960236414  0.5246560688749383  1.0000
  H   H16       1.0  0.35430303960236414  0.33509990438525467  0.4753439317387345  1.0000
  H   H17       1.0  0.6938341934183296  0.9474871369269121  0.5198627366126112  1.0000
  H   H18       1.0  0.9474871369269121  0.3061658064900136  0.4801372640010617  1.0000
  H   H19       1.0  0.19383419346415798  0.5525128629356028  0.4801372640010617  1.0000
  H   H20       1.0  0.3061658064900136  0.052512862981431055  0.5198627366126112  1.0000
  H   H21       1.0  0.5525128629356028  0.8061658064441852  0.5198627366126112  1.0000
  H   H22       1.0  0.052512862981431055  0.6938341934183296  0.4801372640010617  1.0000
  H   H23       1.0  0.8061658064441852  0.4474871369727406  0.4801372640010617  1.0000
  H   H24       1.0  0.4474871369727406  0.19383419346415798  0.5198627366126112  1.0000
  H   H25       1.0  0.6869478921503946  0.06551928260115354  0.7715597369743822  1.0000
  H   H26       1.0  0.06551928260115354  0.31305210775794867  0.22844026221768435  1.0000
  H   H27       1.0  0.18694789219622296  0.4344807173530181  0.22844026221768435  1.0000
  H   H28       1.0  0.31305210775794867  0.9344807173071897  0.7715597369743822  1.0000
  H   H29       1.0  0.4344807173530181  0.8130521077121203  0.7715597369743822  1.0000
  H   H30       1.0  0.9344807173071897  0.6869478921503946  0.22844026221768435  1.0000
  H   H31       1.0  0.8130521077121203  0.5655192825553251  0.22844026221768435  1.0000
  H   H32       1.0  0.5655192825553251  0.18694789219622296  0.7715597369743822  1.0000
  H   H33       1.0  0.8207356272521704  0.09244369240627258  0.9812390767040464  1.0000
  H   H34       1.0  0.09244369240627258  0.1792643726561729  0.01876092390962636  1.0000
  H   H35       1.0  0.3207356272979987  0.40755630754789907  0.01876092390962636  1.0000
  H   H36       1.0  0.1792643726561729  0.9075563075020706  0.9812390767040464  1.0000
  H   H37       1.0  0.40755630754789907  0.6792643732936567  0.9812390767040464  1.0000
  H   H38       1.0  0.9075563075020706  0.8207356272521704  0.01876092390962636  1.0000
  H   H39       1.0  0.6792643732936567  0.5924436923604443  0.01876092390962636  1.0000
  H   H40       1.0  0.5924436923604443  0.3207356272979987  0.9812390767040464  1.0000
  C   C1        1.0  0.23295007061584033  0.2670499293383313  0.9009358017471437  1.0000
  C   C2        1.0  0.2670499293383313  0.7670499292925029  0.09906419744492286  1.0000
  C   C3        1.0  0.7329500705700119  0.23295007061584033  0.09906419744492286  1.0000
  C   C4        1.0  0.7670499292925029  0.7329500705700119  0.9009358017471437  1.0000
  C   C5        1.0  0.2833472815539294  0.21665271840024222  0.9922683616964633  1.0000
  C   C6        1.0  0.21665271840024222  0.7166527183544138  0.0077316389172094645  1.0000
  C   C7        1.0  0.7833472815081011  0.2833472815539294  0.0077316389172094645  1.0000
  C   C8        1.0  0.7166527183544138  0.7833472815081011  0.9922683616964633  1.0000
  C   C9        1.0  0.9022515575605609  0.9862257300907505  0.8486509053277728  1.0000
  C   C10       1.0  0.9862257300907505  0.09774844303109456  0.15134909386429385  1.0000
  C   C11       1.0  0.40225155692307707  0.5137742704550765  0.15134909386429385  1.0000
  C   C12       1.0  0.09774844303109456  0.01377426981759268  0.8486509053277728  1.0000
  C   C13       1.0  0.5137742704550765  0.5977484429852662  0.8486509053277728  1.0000
  C   C14       1.0  0.01377426981759268  0.9022515575605609  0.15134909386429385  1.0000
  C   C15       1.0  0.5977484429852662  0.48622573013657894  0.15134909386429385  1.0000
  C   C16       1.0  0.48622573013657894  0.40225155692307707  0.8486509053277728  1.0000
  C   C17       1.0  0.9070303812487801  0.9199808239346015  0.7041532301532049  1.0000
  C   C18       1.0  0.9199808239346015  0.09296961865956313  0.29584677046046787  1.0000
  C   C19       1.0  0.4070303812946085  0.5800191759279134  0.29584677046046787  1.0000
  C   C20       1.0  0.09296961865956313  0.08001917597374178  0.7041532301532049  1.0000
  C   C21       1.0  0.5800191759279134  0.5929696186137348  0.7041532301532049  1.0000
  C   C22       1.0  0.08001917597374178  0.9070303812487801  0.29584677046046787  1.0000
  C   C23       1.0  0.5929696186137348  0.4199808239804298  0.29584677046046787  1.0000
  C   C24       1.0  0.4199808239804298  0.4070303812946085  0.7041532301532049  1.0000
  C   C25       1.0  0.831900551975352  0.9062250226786479  0.5862578572809353  1.0000
  C   C26       1.0  0.9062250226786479  0.16809944793299125  0.41374214333273757  1.0000
  C   C27       1.0  0.3319005520211804  0.593774977183867  0.41374214333273757  1.0000
  C   C28       1.0  0.16809944793299125  0.09377497722969531  0.5862578572809353  1.0000
  C   C29       1.0  0.593774977183867  0.6680994478871629  0.5862578572809353  1.0000
  C   C30       1.0  0.09377497722969531  0.831900551975352  0.41374214333273757  1.0000
  C   C31       1.0  0.6680994478871629  0.4062250227244763  0.41374214333273757  1.0000
  C   C32       1.0  0.4062250227244763  0.3319005520211804  0.5862578572809353  1.0000
  C   C33       1.0  0.7529003242934077  0.9584416192643361  0.6113044574436355  1.0000
  C   C34       1.0  0.9584416192643361  0.24709967629824778  0.3886955431700373  1.0000
  C   C35       1.0  0.25290032365592385  0.5415583812814909  0.3886955431700373  1.0000
  C   C36       1.0  0.24709967629824778  0.041558381327319295  0.6113044574436355  1.0000
  C   C37       1.0  0.5415583812814909  0.7470996762524194  0.6113044574436355  1.0000
  C   C38       1.0  0.041558381327319295  0.7529003242934077  0.3886955431700373  1.0000
  C   C39       1.0  0.7470996762524194  0.45844161862685234  0.3886955431700373  1.0000
  C   C40       1.0  0.45844161862685234  0.25290032365592385  0.6113044574436355  1.0000
  C   C41       1.0  0.7488804663780759  0.025036789286396455  0.7530747312067484  1.0000
  C   C42       1.0  0.025036789286396455  0.2511195342135795  0.24692526798531808  1.0000
  C   C43       1.0  0.24888046574059208  0.4749632106677752  0.24692526798531808  1.0000
  C   C44       1.0  0.2511195342135795  0.9749632106219468  0.7530747312067484  1.0000
  C   C45       1.0  0.4749632106677752  0.7511195341677511  0.7530747312067484  1.0000
  C   C46       1.0  0.9749632106219468  0.7488804663780759  0.24692526798531808  1.0000
  C   C47       1.0  0.7511195341677511  0.5250367892405681  0.24692526798531808  1.0000
  C   C48       1.0  0.5250367892405681  0.24888046574059208  0.7530747312067484  1.0000
  C   C49       1.0  0.823528358303204  0.039446676778449326  0.8726663362645762  1.0000
  C   C50       1.0  0.039446676778449326  0.17647164160513928  0.12733366292749032  1.0000
  C   C51       1.0  0.3235283583490323  0.4605533231757223  0.12733366292749032  1.0000
  C   C52       1.0  0.17647164160513928  0.9605533238132061  0.8726663362645762  1.0000
  C   C53       1.0  0.4605533231757223  0.6764716415593108  0.8726663362645762  1.0000
  C   C54       1.0  0.9605533238132061  0.823528358303204  0.12733366292749032  1.0000
  C   C55       1.0  0.6764716415593108  0.5394466767326209  0.12733366292749032  1.0000
  C   C56       1.0  0.5394466767326209  0.3235283583490323  0.8726663362645762  1.0000
  P   P1        1.0  0.0  0.9999999999083432  0.0  1.0000
  P   P2        1.0  0.4999999999541716  0.4999999999541716  0.0  1.0000
  I   I1        1.0  0.148256568519158  0.35174343143501363  0.7600513365458152  1.0000
  I   I2        1.0  0.35174343143501363  0.8517434320724974  0.2399486626462513  1.0000
  I   I3        1.0  0.6482565684733296  0.148256568519158  0.2399486626462513  1.0000
  I   I4        1.0  0.8517434320724974  0.6482565684733296  0.7600513365458152  1.0000
  I   I5        1.0  0.36597840740811777  0.13402159254605386  0.14171959634231238  1.0000
  I   I6        1.0  0.13402159254605386  0.6340215925002255  0.8582804042713604  1.0000
  I   I7        1.0  0.8659784073622895  0.36597840740811777  0.8582804042713604  1.0000
  I   I8        1.0  0.6340215925002255  0.8659784073622895  0.14171959634231238  1.0000
  I   I9        1.0  0.0  0.4999999999541716  0.5508185745276801  1.0000
  I   I10       1.0  0.4999999999541716  0.9999999999083432  0.44918142608599265  1.0000
