data_image0
_chemical_formula_structural       H40C56P2Br2I8
_chemical_formula_sum              "H40 C56 P2 Br2 I8"
_cell_length_a       14.451323902038379
_cell_length_b       14.451323902038379
_cell_length_c       7.080282101937439
_cell_angle_alpha    90.0
_cell_angle_beta     90.0
_cell_angle_gamma    90.0

_space_group_name_H-M_alt    "P 1"
_space_group_IT_number       1

loop_
  _space_group_symop_operation_xyz
  'x, y, z'

loop_
  _atom_site_type_symbol
  _atom_site_label
  _atom_site_symmetry_multiplicity
  _atom_site_fract_x
  _atom_site_fract_y
  _atom_site_fract_z
  _atom_site_occupancy
  H   H1        1.0  0.03292226879870099  0.12170259361164301  0.3177206074012836  1.0000
  H   H2        1.0  0.12170259361164301  0.9670777310602475  0.6822793923250777  1.0000
  H   H3        1.0  0.5329222687281753  0.3782974063178313  0.6822793923250777  1.0000
  H   H4        1.0  0.9670777310602475  0.8782974062473056  0.3177206074012836  1.0000
  H   H5        1.0  0.3782974063178313  0.46707773113077333  0.3177206074012836  1.0000
  H   H6        1.0  0.8782974062473056  0.03292226879870099  0.6822793923250777  1.0000
  H   H7        1.0  0.46707773113077333  0.6217025935411172  0.6822793923250777  1.0000
  H   H8        1.0  0.6217025935411172  0.5329222687281753  0.3177206074012836  1.0000
  H   H9        1.0  0.1680956254573574  0.143961635217833  0.5256701889013075  1.0000
  H   H10       1.0  0.143961635217833  0.8319043744015912  0.4743298108250538  1.0000
  H   H11       1.0  0.6680956253868318  0.3560383647116413  0.4743298108250538  1.0000
  H   H12       1.0  0.8319043744015912  0.8560383646411156  0.5256701889013075  1.0000
  H   H13       1.0  0.3560383647116413  0.3319043744721169  0.5256701889013075  1.0000
  H   H14       1.0  0.8560383646411156  0.1680956254573574  0.4743298108250538  1.0000
  H   H15       1.0  0.3319043744721169  0.6439616351473073  0.4743298108250538  1.0000
  H   H16       1.0  0.6439616351473073  0.6680956253868318  0.5256701889013075  1.0000
  H   H17       1.0  0.3108442202562757  0.04898091308438241  0.4784275345572849  1.0000
  H   H18       1.0  0.04898091308438241  0.6891557796026729  0.5215724651690764  1.0000
  H   H19       1.0  0.8108442208777281  0.45101908684509184  0.5215724651690764  1.0000
  H   H20       1.0  0.6891557796026729  0.9510190867745663  0.4784275345572849  1.0000
  H   H21       1.0  0.45101908684509184  0.18915577967319858  0.4784275345572849  1.0000
  H   H22       1.0  0.9510190867745663  0.3108442202562757  0.5215724651690764  1.0000
  H   H23       1.0  0.18915577967319858  0.5489809130138567  0.5215724651690764  1.0000
  H   H24       1.0  0.5489809130138567  0.8108442208777281  0.4784275345572849  1.0000
  H   H25       1.0  0.3156841214635371  0.9299820515478409  0.22636441414692116  1.0000
  H   H26       1.0  0.9299820515478409  0.6843158790873898  0.7736355855794401  1.0000
  H   H27       1.0  0.8156841213930113  0.570017948240582  0.7736355855794401  1.0000
  H   H28       1.0  0.6843158790873898  0.0700179483111078  0.22636441414692116  1.0000
  H   H29       1.0  0.570017948240582  0.18431587915791536  0.22636441414692116  1.0000
  H   H30       1.0  0.0700179483111078  0.3156841214635371  0.7736355855794401  1.0000
  H   H31       1.0  0.18431587915791536  0.4299820516183665  0.7736355855794401  1.0000
  H   H32       1.0  0.4299820516183665  0.8156841213930113  0.22636441414692116  1.0000
  H   H33       1.0  0.1801050130523251  0.9054011451611329  0.01843641370790587  1.0000
  H   H34       1.0  0.9054011451611329  0.8198949868066235  0.9815635874308285  1.0000
  H   H35       1.0  0.6801050136737775  0.5945988546272901  0.9815635874308285  1.0000
  H   H36       1.0  0.8198949868066235  0.09459885469781573  0.01843641370790587  1.0000
  H   H37       1.0  0.5945988546272901  0.3198949868771492  0.01843641370790587  1.0000
  H   H38       1.0  0.09459885469781573  0.1801050130523251  0.9815635874308285  1.0000
  H   H39       1.0  0.3198949868771492  0.40540114523165854  0.9815635874308285  1.0000
  H   H40       1.0  0.40540114523165854  0.6801050136737775  0.01843641370790587  1.0000
  C   C1        1.0  0.7676648932099022  0.7323351072704989  0.10419535117084217  1.0000
  C   C2        1.0  0.7323351072704989  0.23233510664904639  0.8958046499678922  1.0000
  C   C3        1.0  0.2676648932804279  0.7676648932099022  0.8958046499678922  1.0000
  C   C4        1.0  0.23233510664904639  0.2676648932804279  0.10419535117084217  1.0000
  C   C5        1.0  0.7166895005750382  0.7833104992133846  0.012965192442668453  1.0000
  C   C6        1.0  0.7833104992133846  0.2833104992839103  0.9870348072836927  1.0000
  C   C7        1.0  0.216689500645564  0.7166895005750382  0.9870348072836927  1.0000
  C   C8        1.0  0.2833104992839103  0.216689500645564  0.012965192442668453  1.0000
  C   C9        1.0  0.09887689596372906  0.013661678427410538  0.15104720752685197  1.0000
  C   C10       1.0  0.013661678427410538  0.9011231038952195  0.8489527921995093  1.0000
  C   C11       1.0  0.5988768958932034  0.48633832150206374  0.8489527921995093  1.0000
  C   C12       1.0  0.9011231038952195  0.9863383214315381  0.15104720752685197  1.0000
  C   C13       1.0  0.48633832150206374  0.4011231039657452  0.15104720752685197  1.0000
  C   C14       1.0  0.9863383214315381  0.09887689596372906  0.8489527921995093  1.0000
  C   C15       1.0  0.4011231039657452  0.5136616783568849  0.8489527921995093  1.0000
  C   C16       1.0  0.5136616783568849  0.5988768958932034  0.15104720752685197  1.0000
  C   C17       1.0  0.09487247737950251  0.08000941628862879  0.2959723369534346  1.0000
  C   C18       1.0  0.08000941628862879  0.9051275224794462  0.7040276627729267  1.0000
  C   C19       1.0  0.5948724773089769  0.4199905836408455  0.7040276627729267  1.0000
  C   C20       1.0  0.9051275224794462  0.9199905835703198  0.2959723369534346  1.0000
  C   C21       1.0  0.4199905836408455  0.4051275225499718  0.2959723369534346  1.0000
  C   C22       1.0  0.9199905835703198  0.09487247737950251  0.7040276627729267  1.0000
  C   C23       1.0  0.4051275225499718  0.5800094162181032  0.7040276627729267  1.0000
  C   C24       1.0  0.5800094162181032  0.5948724773089769  0.2959723369534346  1.0000
  C   C25       1.0  0.17111028489585045  0.09232987434540836  0.41357416948100484  1.0000
  C   C26       1.0  0.09232987434540836  0.8288897149630982  0.5864258302453564  1.0000
  C   C27       1.0  0.6711102848253248  0.4076701255840659  0.5864258302453564  1.0000
  C   C28       1.0  0.8288897149630982  0.9076701255135402  0.41357416948100484  1.0000
  C   C29       1.0  0.4076701255840659  0.3288897150336239  0.41357416948100484  1.0000
  C   C30       1.0  0.9076701255135402  0.17111028489585045  0.5864258302453564  1.0000
  C   C31       1.0  0.3288897150336239  0.5923298742748826  0.5864258302453564  1.0000
  C   C32       1.0  0.5923298742748826  0.6711102848253248  0.41357416948100484  1.0000
  C   C33       1.0  0.25075816129820877  0.038872395623266276  0.3876417860877277  1.0000
  C   C34       1.0  0.038872395623266276  0.749241839252718  0.6123582136386335  1.0000
  C   C35       1.0  0.750758161227683  0.461127604306208  0.6123582136386335  1.0000
  C   C36       1.0  0.749241839252718  0.9611276042356823  0.3876417860877277  1.0000
  C   C37       1.0  0.461127604306208  0.24924183932324362  0.3876417860877277  1.0000
  C   C38       1.0  0.9611276042356823  0.25075816129820877  0.6123582136386335  1.0000
  C   C39       1.0  0.24924183932324362  0.5388723955527406  0.6123582136386335  1.0000
  C   C40       1.0  0.5388723955527406  0.750758161227683  0.3876417860877277  1.0000
  C   C41       1.0  0.2537802103710858  0.9719935235842793  0.2456269813774952  1.0000
  C   C42       1.0  0.9719935235842793  0.7462197894878628  0.754373018348866  1.0000
  C   C43       1.0  0.75378021030056  0.5280064762041436  0.754373018348866  1.0000
  C   C44       1.0  0.7462197894878628  0.028006476274669352  0.2456269813774952  1.0000
  C   C45       1.0  0.5280064762041436  0.24621978955838855  0.2456269813774952  1.0000
  C   C46       1.0  0.028006476274669352  0.2537802103710858  0.754373018348866  1.0000
  C   C47       1.0  0.24621978955838855  0.47199352365480496  0.754373018348866  1.0000
  C   C48       1.0  0.47199352365480496  0.75378021030056  0.2456269813774952  1.0000
  C   C49       1.0  0.1779177809195278  0.9588385745091162  0.12687139821084167  1.0000
  C   C50       1.0  0.9588385745091162  0.8220822189394208  0.8731286015155196  1.0000
  C   C51       1.0  0.6779177808490021  0.5411614252793066  0.8731286015155196  1.0000
  C   C52       1.0  0.8220822189394208  0.0411614253498323  0.12687139821084167  1.0000
  C   C53       1.0  0.5411614252793066  0.3220822190099465  0.12687139821084167  1.0000
  C   C54       1.0  0.0411614253498323  0.1779177809195278  0.8731286015155196  1.0000
  C   C55       1.0  0.3220822190099465  0.458838574579642  0.8731286015155196  1.0000
  C   C56       1.0  0.458838574579642  0.6779177808490021  0.12687139821084167  1.0000
  P   P1        1.0  0.0  0.0  0.0  1.0000
  P   P2        1.0  0.4999999999294743  0.4999999999294743  0.0  1.0000
  Br  Br1       1.0  0.0  0.4999999999294743  0.4110716194773615  1.0000
  Br  Br2       1.0  0.4999999999294743  0.0  0.5889283802489997  1.0000
  I   I1        1.0  0.8544293701879002  0.6455706296005228  0.2388297013670235  1.0000
  I   I2        1.0  0.6455706296005228  0.14557062967104845  0.7611702983593378  1.0000
  I   I3        1.0  0.35442937025842586  0.8544293701879002  0.7611702983593378  1.0000
  I   I4        1.0  0.14557062967104845  0.35442937025842586  0.2388297013670235  1.0000
  I   I5        1.0  0.6333439622586415  0.8666560382217595  0.8636585141609985  1.0000
  I   I6        1.0  0.8666560382217595  0.36665603829228516  0.1363414855653628  1.0000
  I   I7        1.0  0.13334396163718915  0.6333439622586415  0.1363414855653628  1.0000
  I   I8        1.0  0.36665603829228516  0.13334396163718915  0.8636585141609985  1.0000
