data_image0
_chemical_formula_structural       H18C24N2O8I2
_chemical_formula_sum              "H18 C24 N2 O8 I2"
_cell_length_a       7.592228334385587
_cell_length_b       9.115622525413993
_cell_length_c       9.733508163652484
_cell_angle_alpha    112.94859645317541
_cell_angle_beta     107.63972738457046
_cell_angle_gamma    93.15442832448295

_space_group_name_H-M_alt    "P 1"
_space_group_IT_number       1

loop_
  _space_group_symop_operation_xyz
  'x, y, z'

loop_
  _atom_site_type_symbol
  _atom_site_label
  _atom_site_symmetry_multiplicity
  _atom_site_fract_x
  _atom_site_fract_y
  _atom_site_fract_z
  _atom_site_occupancy
  H   H1        1.0  0.07014742943418847  0.9445754162538089  0.07937455421716022  1.0000
  H   H2        1.0  0.9298525702033036  0.05542458328058628  0.9206254458363577  1.0000
  H   H3        1.0  0.732990588620431  0.558841247246986  0.3075858898041784  1.0000
  H   H4        1.0  0.2670094111037442  0.44115875339030886  0.6924141102591828  1.0000
  H   H5        1.0  0.06251563264665512  0.6100745766146201  0.12927758588386284  1.0000
  H   H6        1.0  0.9374843683908984  0.38992542401111274  0.8707224141719556  1.0000
  H   H7        1.0  0.5074955235762894  0.8550364312443395  0.012080209862473736  1.0000
  H   H8        1.0  0.49250447606120257  0.14496356829005558  0.9879197901910443  1.0000
  H   H9        1.0  0.5008476146599101  0.41349532098989716  0.3636842386495846  1.0000
  H   H10       1.0  0.49915238506426507  0.5865046796473977  0.6363157614137765  1.0000
  H   H11       1.0  0.8182461317018302  0.7323803187682337  0.20411706600316354  1.0000
  H   H12       1.0  0.1817538679356616  0.2676196807661615  0.7958829340503545  1.0000
  H   H13       1.0  0.29240576076287905  0.7471580720625253  0.06591183313441598  1.0000
  H   H14       1.0  0.7075942401879913  0.25284192746030787  0.9340881669115594  1.0000
  H   H15       1.0  0.5995462280399706  0.8448864996377631  0.6628812595851593  1.0000
  H   H16       1.0  0.4004537716842046  0.15511350099953186  0.3371187404782019  1.0000
  H   H17       1.0  0.16127311896736904  0.01653581213893516  0.39990903884342227  1.0000
  H   H18       1.0  0.8387268806701228  0.9834641873954598  0.6000909612100956  1.0000
  C   C1        1.0  0.26607969334945747  0.5017803286262309  0.2498172220963479  1.0000
  C   C2        1.0  0.7339203063747177  0.498219672011064  0.7501827779670134  1.0000
  C   C3        1.0  0.20846620142195202  0.5960084667061858  0.16604115172806863  1.0000
  C   C4        1.0  0.7915337982155398  0.4039915328282095  0.8339588483254493  1.0000
  C   C5        1.0  0.45466951199761824  0.4871133536766936  0.29956277603785036  1.0000
  C   C6        1.0  0.5453304876398738  0.5128866458577015  0.7004372240156677  1.0000
  C   C7        1.0  0.5307658183961595  0.6629147701647945  0.18170704461715403  1.0000
  C   C8        1.0  0.46923418073616363  0.3370852288595099  0.8182929542440271  1.0000
  C   C9        1.0  0.7993372142069675  0.9104800139657965  0.04056547075202579  1.0000
  C   C10       1.0  0.20066278674390287  0.08951998555703676  0.9594345292939495  1.0000
  C   C11       1.0  0.6462791404261217  0.8353094750853989  0.06751783148990863  1.0000
  C   C12       1.0  0.3537208587062016  0.16469052393890543  0.9324821673712725  1.0000
  C   C13       1.0  0.33940336790616615  0.6742813780324709  0.1310142234567113  1.0000
  C   C14       1.0  0.6605966317313259  0.3257186215019244  0.8689857765968068  1.0000
  C   C15       1.0  0.58534606594747  0.5683934228087071  0.2664748756923984  1.0000
  C   C16       1.0  0.4146539337767052  0.43160657782858786  0.7335251243709628  1.0000
  C   C17       1.0  0.6741175461727602  0.7452221800433286  0.1517652710492244  1.0000
  C   C18       1.0  0.32588245355141493  0.25477782059396625  0.8482347290141368  1.0000
  C   C19       1.0  0.3093272515922096  0.010608786489626612  0.4427073222644358  1.0000
  C   C20       1.0  0.6906727481319656  0.9893912141476683  0.5572926777989254  1.0000
  C   C21       1.0  0.5578452390295692  0.9113544870787165  0.590630645655908  1.0000
  C   C22       1.0  0.4421547620079844  0.08864551354701629  0.40936935439991057  1.0000
  C   C23       1.0  0.36983956060708134  0.9232005093216099  0.5323149593105656  1.0000
  C   C24       1.0  0.6301604404304723  0.07679949130412306  0.46768504074525286  1.0000
  N   N1        1.0  0.22885224484494127  0.8399744625812512  0.5661347596743054  1.0000
  N   N2        1.0  0.7711477548792338  0.16002553805604364  0.4338652403890558  1.0000
  O   O1        1.0  0.9713266826150553  0.8928727045289623  0.10965381203623593  1.0000
  O   O2        1.0  0.02867331842249829  0.1071272960967705  0.8903461880195825  1.0000
  O   O3        1.0  0.7670711259218645  0.9868669705658317  0.9552911588428497  1.0000
  O   O4        1.0  0.23292887371562732  0.013133028968563425  0.044708841210668294  1.0000
  O   O5        1.0  0.2856510990739301  0.7787667965267553  0.6616195294314429  1.0000
  O   O6        1.0  0.7143489005635619  0.22123320300763982  0.3383804706220751  1.0000
  O   O7        1.0  0.0598178966699576  0.8336447205170802  0.4972397451208611  1.0000
  O   O8        1.0  0.9401821030542176  0.16635528012021472  0.5027602549425001  1.0000
  I   I1        1.0  0.06648176421777786  0.383052346074215  0.3016416539608089  1.0000
  I   I2        1.0  0.9335182367330924  0.6169476534486181  0.6983583460851664  1.0000
