data_image0
_chemical_formula_structural       H22C34N2O6F4I2
_chemical_formula_sum              "H22 C34 N2 O6 F4 I2"
_cell_length_a       4.637972655669375
_cell_length_b       6.0193472943020545
_cell_length_c       27.429043309477947
_cell_angle_alpha    89.07191883593738
_cell_angle_beta     84.07653011096123
_cell_angle_gamma    84.46397922792337

_space_group_name_H-M_alt    "P 1"
_space_group_IT_number       1

loop_
  _space_group_symop_operation_xyz
  'x, y, z'

loop_
  _atom_site_type_symbol
  _atom_site_label
  _atom_site_symmetry_multiplicity
  _atom_site_fract_x
  _atom_site_fract_y
  _atom_site_fract_z
  _atom_site_occupancy
  H   H1        1.0  0.2689082790290274  0.6149837630502318  0.8041636763653616  1.0000
  H   H2        1.0  0.7310917211876947  0.3850162373239464  0.19583632373746687  1.0000
  H   H3        1.0  0.7390718339406825  0.8145159252490474  0.7220179038651782  1.0000
  H   H4        1.0  0.2609281664735673  0.18548407345608656  0.2779820962369034  1.0000
  H   H5        1.0  0.5891378170016979  0.5524619459518509  0.6619302353660113  1.0000
  H   H6        1.0  0.41086218339984515  0.4475380544364079  0.33806976437033076  1.0000
  H   H7        1.0  0.8209809662910413  0.16219925378205907  0.6553657068090036  1.0000
  H   H8        1.0  0.17901903176494377  0.8378007466010903  0.34463429330013473  1.0000
  H   H9        1.0  0.1798580467864941  0.02607842520892339  0.7134770369591752  1.0000
  H   H10       1.0  0.8201419536150488  0.9739215751793354  0.28652296277716693  1.0000
  H   H11       1.0  0.4313589166161756  0.07773698896085053  0.7824919338633927  1.0000
  H   H12       1.0  0.5686410836005465  0.9222630114133277  0.21750806623943578  1.0000
  H   H13       1.0  0.579270525309885  0.6216754155460367  0.8879863150723621  1.0000
  H   H14       1.0  0.42072947510436515  0.37832458315909717  0.1120136850297194  1.0000
  H   H15       1.0  0.9251363432901567  0.5031669064815625  0.9493011422353693  1.0000
  H   H16       1.0  0.0748636569265653  0.4968330938926159  0.050698857867459084  1.0000
  H   H17       1.0  0.08482949333305477  0.8554374177240496  0.8823932240318051  1.0000
  H   H18       1.0  0.915170507266016  0.14456258099516475  0.1176067757037902  1.0000
  H   H19       1.0  0.7546257921090368  0.9714952671007653  0.8206962862314285  1.0000
  H   H20       1.0  0.24537420810768537  0.028504733273412998  0.1793037138713997  1.0000
  H   H21       1.0  0.4213553882859646  0.17498176111157326  0.01201841687366016  1.0000
  H   H22       1.0  0.5786446121282853  0.8250182375935605  0.9879815832284213  1.0000
  C   C1        1.0  0.04263984514093706  0.5681128581732647  0.7516953403022764  1.0000
  C   C2        1.0  0.9573601552606058  0.4318871422149939  0.2483046594340657  1.0000
  C   C3        1.0  0.8355747773862187  0.6421998046782256  0.7196601626587599  1.0000
  C   C4        1.0  0.1644252228305034  0.3578001956959527  0.28033983744406854  1.0000
  C   C5        1.0  0.7555088416608063  0.495205908445349  0.6858659644825656  1.0000
  C   C6        1.0  0.2444911563951789  0.5047940919378002  0.31413403562657277  1.0000
  C   C7        1.0  0.8817544151264183  0.2732898841710252  0.6826742173416812  1.0000
  C   C8        1.0  0.11824558509030376  0.726710116203153  0.3173257827611472  1.0000
  C   C9        1.0  0.08190464924727073  0.19819768835458593  0.7148445987345429  1.0000
  C   C10       1.0  0.9180953509694513  0.8018023120195923  0.28515540136828565  1.0000
  C   C11       1.0  0.16312347853477002  0.3412712301744054  0.7500871317643102  1.0000
  C   C12       1.0  0.836876521681952  0.6587287701997729  0.24991286833851825  1.0000
  C   C13       1.0  0.36153474936008206  0.2570410844864918  0.7844298634772356  1.0000
  C   C14       1.0  0.6384652508566399  0.7429589158876866  0.21557013662559277  1.0000
  C   C15       1.0  0.640361918828005  0.306702571694253  0.8502187830663919  1.0000
  C   C16       1.0  0.35963808138871706  0.6932974286799254  0.14978121703643654  1.0000
  C   C17       1.0  0.6936678694285544  0.45485117784500056  0.8866094420890973  1.0000
  C   C18       1.0  0.30633213078816773  0.5451488225291777  0.11339055801373112  1.0000
  C   C19       1.0  0.8847677539612949  0.3884694763600518  0.9210674502794817  1.0000
  C   C20       1.0  0.11523224645295498  0.611530522345082  0.0789325498225998  1.0000
  C   C21       1.0  0.026117652042341174  0.1715507928185489  0.9196693422571215  1.0000
  C   C22       1.0  0.9738823483592018  0.8284492075697097  0.08033065747922057  1.0000
  C   C23       1.0  0.9738276543270323  0.023412088155645227  0.883306122439859  1.0000
  C   C24       1.0  0.026172345889689804  0.9765879122185329  0.11669387766296953  1.0000
  C   C25       1.0  0.7839829359010682  0.08954454891316872  0.8489224210245581  1.0000
  C   C26       1.0  0.21601706431565387  0.9104554514610097  0.15107757907827035  1.0000
  C   C27       1.0  0.23321679101113027  0.09465724113140483  0.9551976611144503  1.0000
  C   C28       1.0  0.7667832093904128  0.9053427592568539  0.044802338621891785  1.0000
  C   C29       1.0  0.34847682521350903  0.8859238908689232  0.5386165236554097  1.0000
  C   C30       1.0  0.6515231750032131  0.1140761095052551  0.4613834764474187  1.0000
  C   C31       1.0  0.4897484463693747  0.07309610417665069  0.5477711317537254  1.0000
  C   C32       1.0  0.5102515540448753  0.9269038945284831  0.4522288683483561  1.0000
  C   C33       1.0  0.6392252319037066  0.1852198871033436  0.5097856140534264  1.0000
  C   C34       1.0  0.3607747683130156  0.8147801132708347  0.490214386049402  1.0000
  N   N1        1.0  0.44691230153021594  0.3870606186126106  0.8164839387271243  1.0000
  N   N2        1.0  0.5530876986865061  0.6129393817615677  0.1835160613757041  1.0000
  O   O1        1.0  0.12355067401066726  0.7100275912632001  0.7838724806445648  1.0000
  O   O2        1.0  0.8764493262060546  0.28997240911097805  0.21612751945826356  1.0000
  O   O3        1.0  0.2679198469434888  0.24033702745440036  0.9889426130911606  1.0000
  O   O4        1.0  0.7320801532732333  0.759662972919778  0.011057387011667773  1.0000
  O   O5        1.0  0.36400227352765946  0.9023043293501768  0.9527585004372073  1.0000
  O   O6        1.0  0.6359977266890626  0.09769567102400156  0.047241499665620953  1.0000
  F   F1        1.0  0.4844658313777498  0.1486760187422337  0.5940615618763014  1.0000
  F   F2        1.0  0.5155341690237931  0.8513239816460251  0.40593843786004064  1.0000
  F   F3        1.0  0.7728091385664102  0.36508294349820525  0.5207922477597422  1.0000
  F   F4        1.0  0.22719086184783985  0.6349170552069286  0.47920775234233925  1.0000
  I   I1        1.0  0.1320235050614849  0.7157696288650653  0.5959276432802872  1.0000
  I   I2        1.0  0.867976493192028  0.2842303698490395  0.4040723568281042  1.0000
