data_image0
_chemical_formula_structural       H56C76N4O12F4
_chemical_formula_sum              "H56 C76 N4 O12 F4"
_cell_length_a       3.72702577712728
_cell_length_b       32.32076576823978
_cell_length_c       11.816219971677485
_cell_angle_alpha    90.0
_cell_angle_beta     95.88194294435951
_cell_angle_gamma    90.0

_space_group_name_H-M_alt    "P 1"
_space_group_IT_number       1

loop_
  _space_group_symop_operation_xyz
  'x, y, z'

loop_
  _atom_site_type_symbol
  _atom_site_label
  _atom_site_symmetry_multiplicity
  _atom_site_fract_x
  _atom_site_fract_y
  _atom_site_fract_z
  _atom_site_occupancy
  H   H1        1.0  0.2618020946366346  0.5252141899026699  0.4573195861470511  1.0000
  H   H2        1.0  0.738197906362888  0.025214190030138712  0.04268041341276888  1.0000
  H   H3        1.0  0.7381979070506038  0.47478581015179105  0.5426804131125867  1.0000
  H   H4        1.0  0.26180209261832815  0.9747858100243223  0.9573195866029511  1.0000
  H   H5        1.0  0.2672418216231297  0.5262070614896275  0.6676025940054545  1.0000
  H   H6        1.0  0.7327581780370712  0.0262070616170964  0.8323974065560911  1.0000
  H   H7        1.0  0.7327581773580865  0.4737929382554348  0.3323974060102655  1.0000
  H   H8        1.0  0.26724182364143617  0.9737929384373645  0.16760259354955448  1.0000
  H   H9        1.0  0.12368750000623437  0.5585743354428949  0.8397107377950169  1.0000
  H   H10       1.0  0.8763124996626978  0.05857433526096507  0.6602892619205212  1.0000
  H   H11       1.0  0.8763124989749818  0.44142566461156607  0.1602892622207033  1.0000
  H   H12       1.0  0.12368749931851847  0.9414256647934959  0.3397107380951989  1.0000
  H   H13       1.0  0.8656695848813601  0.6161280219285015  0.9431187961648102  1.0000
  H   H14       1.0  0.13433041477884083  0.11612802205597032  0.5568812043967355  1.0000
  H   H15       1.0  0.13433041409985597  0.38387197812595947  0.056881203850909966  1.0000
  H   H16       1.0  0.8656695868996667  0.8838719779984906  0.44311879570891  1.0000
  H   H17       1.0  0.6063909068879737  0.6775169052930696  0.832771543412535  1.0000
  H   H18       1.0  0.39360909278095835  0.1775169051111399  0.667228456303003  1.0000
  H   H19       1.0  0.39360909209324246  0.32248309476139125  0.16722845660318503  1.0000
  H   H20       1.0  0.6063909062002578  0.8224830949433211  0.3327715437127172  1.0000
  H   H21       1.0  0.5927927846066442  0.6798681927144425  0.6262667116657931  1.0000
  H   H22       1.0  0.40720721506228785  0.17986819284191136  0.8737332880497448  1.0000
  H   H23       1.0  0.4072072143745719  0.32013180734001845  0.37373328834992703  1.0000
  H   H24       1.0  0.5927927839276593  0.8201318072125495  0.12626671111996757  1.0000
  H   H25       1.0  0.5389014085831952  0.6760242689382898  0.46078597210835576  1.0000
  H   H26       1.0  0.46109858971030493  0.17602426875636001  0.03921402820754649  1.0000
  H   H27       1.0  0.46109859039802087  0.3239757311161712  0.5392140279073643  1.0000
  H   H28       1.0  0.5389014092709111  0.8239757309887024  0.9607859718081737  1.0000
  H   H29       1.0  0.7459839340383219  0.6238786149000999  0.2737557381902482  1.0000
  H   H30       1.0  0.25401606695246975  0.12387861502756882  0.22624426221557953  1.0000
  H   H31       1.0  0.25401606764018564  0.376121385154361  0.7262442619153974  1.0000
  H   H32       1.0  0.7459839347260377  0.8761213850268921  0.773755737890066  1.0000
  H   H33       1.0  0.43450537205442374  0.6385589539552547  0.09233145740423955  1.0000
  H   H34       1.0  0.5654946262390765  0.138558953773325  0.40766854291166277  1.0000
  H   H35       1.0  0.5654946269267923  0.3614410460992062  0.9076685426114807  1.0000
  H   H36       1.0  0.43450537274213963  0.8614410462811359  0.5923314571040574  1.0000
  H   H37       1.0  0.15201121444349797  0.6911870968710851  0.9548380960930108  1.0000
  H   H38       1.0  0.8479887852167031  0.19118709668915532  0.5451619044685346  1.0000
  H   H39       1.0  0.8479887845377181  0.30881290318337584  0.04516190392270914  1.0000
  H   H40       1.0  0.15201121646180443  0.808812903055907  0.45483809563711086  1.0000
  H   H41       1.0  0.16221674068842898  0.7803651445283691  0.2253303822805747  1.0000
  H   H42       1.0  0.8377832603023627  0.2803651443464393  0.274669618125253  1.0000
  H   H43       1.0  0.8377832582927872  0.21963485552609188  0.7746696177351454  1.0000
  H   H44       1.0  0.16221674137614484  0.7196348557080217  0.7253303819803925  1.0000
  H   H45       1.0  0.4667811258406241  0.7293188487249064  0.3610981482762801  1.0000
  H   H46       1.0  0.5332188751501675  0.22931884885237516  0.13890185212954753  1.0000
  H   H47       1.0  0.5332188758378834  0.270681151020156  0.6389018518293654  1.0000
  H   H48       1.0  0.4667811238310487  0.7706811512020858  0.8610981478861726  1.0000
  H   H49       1.0  0.37015651633044755  0.4675984897254827  0.08241478551820529  1.0000
  H   H50       1.0  0.629843484669075  0.9675984899074124  0.41758521404161475  1.0000
  H   H51       1.0  0.6298434826507685  0.5324015100195797  0.9175852144975147  1.0000
  H   H52       1.0  0.3701565170094325  0.032401510147048534  0.5824147860640309  1.0000
  H   H53       1.0  0.13967168529157165  0.5488695362976894  0.26032318560921763  1.0000
  H   H54       1.0  0.8603283156992199  0.04886953642515819  0.23967681479661004  1.0000
  H   H55       1.0  0.8603283163869359  0.45113046375677157  0.739676814496428  1.0000
  H   H56       1.0  0.13967168597928756  0.9511304636293028  0.7603231853090354  1.0000
  C   C1        1.0  0.9917129352274592  0.5842194747302348  0.43158094509507644  1.0000
  C   C2        1.0  0.008287065772063456  0.08421947454830507  0.06841905446474356  1.0000
  C   C3        1.0  0.008287066451048335  0.4157805253242261  0.5684190550105691  1.0000
  C   C4        1.0  0.991712935906444  0.9157805251967572  0.9315809456409019  1.0000
  C   C5        1.0  0.14787061864957185  0.5510913453511915  0.5005557702785671  1.0000
  C   C6        1.0  0.8521293810106293  0.05109134547866042  0.9994442302829785  1.0000
  C   C7        1.0  0.8521293803316443  0.44890865439387073  0.49944422973715297  1.0000
  C   C8        1.0  0.1478706206678783  0.9489086545758005  0.0005557698226670441  1.0000
  C   C9        1.0  0.1496690603371794  0.5518093852691321  0.6160873949861977  1.0000
  C   C10       1.0  0.8503309393317526  0.05180938539660089  0.8839126047293402  1.0000
  C   C11       1.0  0.8503309386440366  0.4481906147853289  0.38391260502952235  1.0000
  C   C12       1.0  0.14966905964946348  0.94819061465786  0.1160873952863799  1.0000
  C   C13       1.0  0.0006333299327149973  0.5856102719137648  0.6739021515157151  1.0000
  C   C14       1.0  0.9993666697362171  0.08561027173183505  0.8260978481998229  1.0000
  C   C15       1.0  0.9993666717457925  0.4143897281406961  0.3260978485899304  1.0000
  C   C16       1.0  0.000633329244999102  0.9143897283226259  0.17390215181589727  1.0000
  C   C17       1.0  0.00553463362881242  0.5851563671360996  0.7933362835638142  1.0000
  C   C18       1.0  0.9944653660401195  0.08515636726356851  0.7066637161517237  1.0000
  C   C19       1.0  0.9944653653524037  0.41484363291836124  0.2066637164519059  1.0000
  C   C20       1.0  0.005534632941096526  0.9148436327908924  0.29333628386399635  1.0000
  C   C21       1.0  0.8644480565313508  0.6175792610586737  0.850930213083606  1.0000
  C   C22       1.0  0.1355519431375812  0.11757926087674393  0.6490697866319319  1.0000
  C   C23       1.0  0.13555194514715665  0.3824207389957872  0.14906978702203946  1.0000
  C   C24       1.0  0.8644480558436349  0.882420739177717  0.3509302133837882  1.0000
  C   C25       1.0  0.7190687778527433  0.6517163925212025  0.7885080104629212  1.0000
  C   C26       1.0  0.2809312218074578  0.15171639233927264  0.7114919900986244  1.0000
  C   C27       1.0  0.2809312238257642  0.34828360753325854  0.21149198964272428  1.0000
  C   C28       1.0  0.7190687771737585  0.8482836077151883  0.2885080099170957  1.0000
  C   C29       1.0  0.7105254101829696  0.6529080799421066  0.6709512790627042  1.0000
  C   C30       1.0  0.2894745921832538  0.1529080800695754  0.829048720742759  1.0000
  C   C31       1.0  0.2894745914955379  0.3470919201123544  0.3290487210429412  1.0000
  C   C32       1.0  0.7105254094952537  0.8470919199848855  0.17095127936288648  1.0000
  C   C33       1.0  0.8475846671237527  0.6199354756529094  0.610032375653227  1.0000
  C   C34       1.0  0.15241533254517942  0.11993547578037823  0.889967624062311  1.0000
  C   C35       1.0  0.15241533455475487  0.3800645240921529  0.38996762445241856  1.0000
  C   C36       1.0  0.8475846664360367  0.8800645242740827  0.1100323759534091  1.0000
  C   C37       1.0  0.8373857825581931  0.618925097364407  0.4867488779827929  1.0000
  C   C38       1.0  0.16261421843259852  0.11892509718247725  0.013251122423034703  1.0000
  C   C39       1.0  0.16261421642302307  0.38107490269005395  0.5132511220329271  1.0000
  C   C40       1.0  0.8373857832459091  0.8810749025625851  0.9867488776826108  1.0000
  C   C41       1.0  0.6646660275502712  0.6503988157563028  0.420152579536782  1.0000
  C   C42       1.0  0.3353339707519602  0.15039881557437293  0.07984741993311259  1.0000
  C   C43       1.0  0.3353339714309451  0.34960118429815823  0.5798474204789381  1.0000
  C   C44       1.0  0.664666028229256  0.849601184480088  0.9201525800826076  1.0000
  C   C45       1.0  0.4690816266282046  0.6806730458601425  0.2346908557716589  1.0000
  C   C46       1.0  0.5309183716740268  0.18067304598761133  0.26530914369823566  1.0000
  C   C47       1.0  0.5309183723530115  0.3193269538849199  0.7653091442440613  1.0000
  C   C48       1.0  0.46908162731592046  0.8193269540668496  0.7346908554714768  1.0000
  C   C49       1.0  0.3837773581556658  0.6700157726856784  0.1199671160864762  1.0000
  C   C50       1.0  0.6162226428438569  0.1700157728131472  0.38003288347334385  1.0000
  C   C51       1.0  0.6162226435228417  0.3299842273687826  0.8800328840191692  1.0000
  C   C52       1.0  0.3837773561373593  0.8299842272413137  0.6199671165423764  1.0000
  C   C53       1.0  0.22377757654270655  0.6990635553629863  0.043839122627422324  1.0000
  C   C54       1.0  0.7762224217507937  0.19906355518105645  0.45616087768847996  1.0000
  C   C55       1.0  0.7762224224385097  0.30093644469147474  0.9561608773882977  1.0000
  C   C56       1.0  0.22377757723042246  0.8009364445640059  0.5438391223272402  1.0000
  C   C57       1.0  0.14961090652184864  0.7380677392068846  0.08448539176326461  1.0000
  C   C58       1.0  0.8503890917716517  0.2380677390249548  0.41551460855263767  1.0000
  C   C59       1.0  0.8503890924593674  0.26193226084757637  0.9155146082524555  1.0000
  C   C60       1.0  0.14961090720956452  0.7619322607201076  0.5844853914630825  1.0000
  C   C61       1.0  0.22819228614817988  0.7494138784855633  0.19756827920629375  1.0000
  C   C62       1.0  0.7718077148426116  0.24941387861303208  0.3024317211995339  1.0000
  C   C63       1.0  0.7718077155303277  0.25058612125949903  0.8024317208993518  1.0000
  C   C64       1.0  0.2281922868358958  0.7505861214414289  0.6975682789061117  1.0000
  C   C65       1.0  0.39329993000787145  0.7204786293424569  0.2730289851099475  1.0000
  C   C66       1.0  0.6067000682943599  0.2204786294699258  0.2269710143599471  1.0000
  C   C67       1.0  0.6067000689820758  0.279521370712004  0.7269710140597649  1.0000
  C   C68       1.0  0.3932999306868563  0.7795213705845351  0.773028985655773  1.0000
  C   C69       1.0  0.42809326370401984  0.49808712533102656  0.04936681970469551  1.0000
  C   C70       1.0  0.5719067372867718  0.9980871252035576  0.4506331807011321  1.0000
  C   C71       1.0  0.5719067379744875  0.5019128747234344  0.95063318040095  1.0000
  C   C72       1.0  0.4280932616944444  0.0019128745415046236  0.549366819314588  1.0000
  C   C73       1.0  0.3392775782825802  0.5344986577321691  0.1175942962791848  1.0000
  C   C74       1.0  0.6607224227169425  0.03449865755023926  0.38240570328063517  1.0000
  C   C75       1.0  0.6607224206986361  0.4655013423222919  0.8824057037365352  1.0000
  C   C76       1.0  0.3392775789615651  0.9655013421948231  0.6175942968250103  1.0000
  N   N1        1.0  0.6347032670420495  0.6504583468334374  0.30707516530048096  1.0000
  N   N2        1.0  0.36529673125145085  0.15045834696090618  0.19292483501542132  1.0000
  N   N3        1.0  0.36529673193916673  0.349541652911625  0.6929248347152391  1.0000
  N   N4        1.0  0.6347032677297654  0.8495416530935548  0.8070751650002987  1.0000
  O   O1        1.0  0.9868454203603421  0.5831598525589788  0.3219862744124264  1.0000
  O   O2        1.0  0.013154577933158088  0.08315985237704904  0.17801372590347578  1.0000
  O   O3        1.0  0.013154578620873983  0.41684014749548215  0.6780137256032936  1.0000
  O   O4        1.0  0.9868454210480581  0.916840147677412  0.8219862741122442  1.0000
  O   O5        1.0  0.22222411709884082  0.5231110033480122  0.2158280489336669  1.0000
  O   O6        1.0  0.7777758839006818  0.023111003166082486  0.2841719506261531  1.0000
  O   O7        1.0  0.7777758818823755  0.47688899670644863  0.7841719510820532  1.0000
  O   O8        1.0  0.22222411777782572  0.9768889968883785  0.7158280494794924  1.0000
  O   O9        1.0  0.36841924300887235  0.5705863042428885  0.08577915633353421  1.0000
  O   O10       1.0  0.6315807579906504  0.07058630437035734  0.4142208432262858  1.0000
  O   O11       1.0  0.6315807559723439  0.4294136958115724  0.9142208436821859  1.0000
  O   O12       1.0  0.3684192436965882  0.9294136956841036  0.5857791560333521  1.0000
  F   F1        1.0  0.9916914895840846  0.7669034842100501  0.00937265880141827  1.0000
  F   F2        1.0  0.008308511406707006  0.2669034843375188  0.4906273416044094  1.0000
  F   F3        1.0  0.008308512094422902  0.233096515844411  0.9906273413042271  1.0000
  F   F4        1.0  0.9916914875745092  0.7330965157169421  0.5093726584113107  1.0000
