data_image0
_chemical_formula_structural       H36C40F6PS8
_chemical_formula_sum              "H36 C40 F6 P1 S8"
_cell_length_a       6.944566849750538
_cell_length_b       9.131009310357221
_cell_length_c       15.064553694450524
_cell_angle_alpha    98.93950615140452
_cell_angle_beta     96.87419265782714
_cell_angle_gamma    101.05355957522735

_space_group_name_H-M_alt    "P 1"
_space_group_IT_number       1

loop_
  _space_group_symop_operation_xyz
  'x, y, z'

loop_
  _atom_site_type_symbol
  _atom_site_label
  _atom_site_symmetry_multiplicity
  _atom_site_fract_x
  _atom_site_fract_y
  _atom_site_fract_z
  _atom_site_occupancy
  H   H1        1.0  0.13104346818858797  0.049821100190733415  0.459119736590937  1.0000
  H   H2        1.0  0.8689565314307003  0.9501789006332286  0.5408802634226226  1.0000
  H   H3        1.0  0.36903837277280993  0.7325132380973098  0.7395933939465983  1.0000
  H   H4        1.0  0.630961626565784  0.26748676161195867  0.26040660607075655  1.0000
  H   H5        1.0  0.31920604670471986  0.8490989103244283  0.437654393006419  1.0000
  H   H6        1.0  0.6807939526338742  0.15090108938484012  0.5623456070109358  1.0000
  H   H7        1.0  0.20340651607892013  0.19831305931542303  0.6117477363759173  1.0000
  H   H8        1.0  0.7965934832596739  0.8016869403938454  0.38825226364143756  1.0000
  H   H9        1.0  0.07885350225144298  0.16588889517379582  0.15668079991900077  1.0000
  H   H10       1.0  0.921146497087151  0.8341111045354725  0.8433192000983541  1.0000
  H   H11       1.0  0.2438590892789923  0.700463282951633  0.28483880820594126  1.0000
  H   H12       1.0  0.7561409100596017  0.2995367167576355  0.7151611918114136  1.0000
  H   H13       1.0  0.4565733446320541  0.12247318846278  0.7424998981052314  1.0000
  H   H14       1.0  0.5434266547065398  0.8775268112464885  0.2575001019121234  1.0000
  H   H15       1.0  0.5593547669087902  0.9625068080775713  0.7613302042389819  1.0000
  H   H16       1.0  0.4406452338694885  0.037493191631026934  0.2386697957779087  1.0000
  H   H17       1.0  0.29895044328273646  0.9546236590644831  0.7606312279565673  1.0000
  H   H18       1.0  0.7010495574955422  0.04537634064411515  0.23936877206032325  1.0000
  H   H19       1.0  0.5034233647941856  0.6379151671293226  0.8455996011347692  1.0000
  H   H20       1.0  0.4965766345444085  0.3620848325799459  0.15440039888258583  1.0000
  H   H21       1.0  0.37386158324287366  0.5091893124693558  0.9069924337531757  1.0000
  H   H22       1.0  0.626138417535405  0.4908106872392423  0.09300756626371474  1.0000
  H   H23       1.0  0.24446206819443342  0.6285672347883356  0.8502509502013345  1.0000
  H   H24       1.0  0.7555379311441605  0.3714327649209327  0.14974904981602039  1.0000
  H   H25       1.0  0.8853065167241052  0.9285411108422629  0.13598161114150886  1.0000
  H   H26       1.0  0.11469348289518316  0.07145888998169919  0.864018388872051  1.0000
  H   H27       1.0  0.9857378813573238  0.7700792625605364  0.1603820530245921  1.0000
  H   H28       1.0  0.01426211798127031  0.22992073714873204  0.8396179469927628  1.0000
  H   H29       1.0  0.14582879586033204  0.9324247599174006  0.13619822371342585  1.0000
  H   H30       1.0  0.8541712034782621  0.06757523979186787  0.8638017763039291  1.0000
  H   H31       1.0  0.10039081064399877  0.3983994439424284  0.9891371191397826  1.0000
  H   H32       1.0  0.8996091889752895  0.6016005568815337  0.010862880873776947  1.0000
  H   H33       1.0  0.9499651986935439  0.26936563011278586  0.043809572255691105  1.0000
  H   H34       1.0  0.0500348006450502  0.7306343695964824  0.9561904277616639  1.0000
  H   H35       1.0  0.20976812140289142  0.270088773740513  0.04641999486339616  1.0000
  H   H36       1.0  0.7902318796560815  0.7299112270827788  0.9535800051496993  1.0000
  C   C1        1.0  0.20132761034705057  0.4056125706594718  0.4031671878844065  1.0000
  C   C2        1.0  0.7986723904312282  0.5943874290491264  0.5968328121324843  1.0000
  C   C3        1.0  0.15870384417397493  0.24385040435372612  0.39028508578573773  1.0000
  C   C4        1.0  0.8412961554453134  0.7561495964702359  0.609714914227822  1.0000
  C   C5        1.0  0.16191859309459425  0.17315813690055598  0.46773863192955023  1.0000
  C   C6        1.0  0.8380814062439997  0.8268418628087124  0.5322613680878046  1.0000
  C   C7        1.0  0.24789826290598518  0.4180946634653318  0.5696928089584437  1.0000
  C   C8        1.0  0.7521017381529878  0.58190533735796  0.43030719105465176  1.0000
  C   C9        1.0  0.3349661867588318  0.6658679389836212  0.6713158646146776  1.0000
  C   C10       1.0  0.6650338128604565  0.33413206184034083  0.3286841353988821  1.0000
  C   C11       1.0  0.2893012174148754  0.6550187547180696  0.5063210178224478  1.0000
  C   C12       1.0  0.7106987819237186  0.3449812449911989  0.4936789821949071  1.0000
  C   C13       1.0  0.20011120517281988  0.48085035826513295  0.3268073508561467  1.0000
  C   C14       1.0  0.7998887944464683  0.519149642558829  0.673192649157413  1.0000
  C   C15       1.0  0.2463519867297128  0.4932726850214038  0.4933859536988846  1.0000
  C   C16       1.0  0.7536480126088813  0.5067273146878646  0.5066140463184703  1.0000
  C   C17       1.0  0.2862581086494179  0.7256499105055334  0.4289218321648373  1.0000
  C   C18       1.0  0.713741890689176  0.27435008920373494  0.5710781678525175  1.0000
  C   C19       1.0  0.20443321764057248  0.25732866103964624  0.5541672508088858  1.0000
  C   C20       1.0  0.7955667819787158  0.7426713397843159  0.445832749204674  1.0000
  C   C21       1.0  0.11316881347260882  0.23277405589345548  0.2249765296023402  1.0000
  C   C22       1.0  0.8868311861466793  0.7672259449305066  0.7750234704112196  1.0000
  C   C23       1.0  0.3336495832749349  0.7402719401618242  0.5969568028066561  1.0000
  C   C24       1.0  0.6663504160636591  0.2597280595474442  0.4030431972106988  1.0000
  C   C25       1.0  0.24390766795837915  0.6417049343333391  0.34247429371547516  1.0000
  C   C26       1.0  0.7560923328198995  0.35829506537525907  0.6575257063014154  1.0000
  C   C27       1.0  0.293916737082741  0.5076349643094279  0.6591705305969393  1.0000
  C   C28       1.0  0.7060832639762319  0.492365036513864  0.34082946941615616  1.0000
  C   C29       1.0  0.1550746436195231  0.39134559962461457  0.23723628756276532  1.0000
  C   C30       1.0  0.8449253559997653  0.6086544011993476  0.7627637124507943  1.0000
  C   C31       1.0  0.11434975196074625  0.15844325179236832  0.29963102065725805  1.0000
  C   C32       1.0  0.8856502473778477  0.8415567479169002  0.7003689793600968  1.0000
  C   C33       1.0  0.4292211177826911  0.9981324159758476  0.730675350332127  1.0000
  C   C34       1.0  0.5707788815559028  0.0018675837334207947  0.2693246496852278  1.0000
  C   C35       1.0  0.3609211353930855  0.5633122716595672  0.8471035778495857  1.0000
  C   C36       1.0  0.6390788639455085  0.43668772804970113  0.15289642216776916  1.0000
  C   C37       1.0  0.01568437103687719  0.8941375857084339  0.167827340932914  1.0000
  C   C38       1.0  0.9843156297414016  0.1058624140001643  0.8321726590839766  1.0000
  C   C39       1.0  0.09826417118996282  0.3402992233021815  0.047655312875875315  1.0000
  C   C40       1.0  0.9017358295883159  0.6597007764064168  0.9523446871410153  1.0000
  F   F1        1.0  0.5206499687225232  0.14770083840170983  0.9500189973971451  1.0000
  F   F2        1.0  0.479350030896765  0.8522991624222521  0.04998100261641449  1.0000
  F   F3        1.0  0.6313224283539803  0.9224091003910204  0.9297541802080619  1.0000
  F   F4        1.0  0.3686775727049925  0.07759090043227135  0.07024581980503355  1.0000
  F   F5        1.0  0.7046377619648118  0.08249876558601343  0.07072770039026904  1.0000
  F   F6        1.0  0.29536223737378225  0.9175012341232549  0.9292722996270859  1.0000
  P   P1        1.0  0.5000000005464823  3.671677271772163e-11  1.6097776563414896e-10  1.0000
  S   S1        1.0  0.38509529355669875  0.9374371671645703  0.6096824419718152  1.0000
  S   S2        1.0  0.6149047060625895  0.06256283365939183  0.39031755804174445  1.0000
  S   S3        1.0  0.15747305959804533  0.48945759390513544  0.14607356002413577  1.0000
  S   S4        1.0  0.8425269397405487  0.510542405804133  0.853926439993219  1.0000
  S   S5        1.0  0.06252371832786202  0.9612030969166611  0.28851505985486164  1.0000
  S   S6        1.0  0.9374762827311109  0.038796903906630896  0.7114849401582338  1.0000
  S   S7        1.0  0.298798645681727  0.41134453868382537  0.7506519794310581  1.0000
  S   S8        1.0  0.7012013550965517  0.588655461024773  0.24934802058583252  1.0000
