data_image0
_chemical_formula_structural       H40C30N8O16
_chemical_formula_sum              "H40 C30 N8 O16"
_cell_length_a       8.083777856582575
_cell_length_b       8.139817011699167
_cell_length_c       13.030693611874101
_cell_angle_alpha    102.58420307359765
_cell_angle_beta     97.6236704761022
_cell_angle_gamma    94.82751050186097

_space_group_name_H-M_alt    "P 1"
_space_group_IT_number       1

loop_
  _space_group_symop_operation_xyz
  'x, y, z'

loop_
  _atom_site_type_symbol
  _atom_site_label
  _atom_site_symmetry_multiplicity
  _atom_site_fract_x
  _atom_site_fract_y
  _atom_site_fract_z
  _atom_site_occupancy
  H   H1        1.0  0.2938895345746846  0.2223759441807795  0.5494574236441457  1.0000
  H   H2        1.0  0.7061104657005778  0.777624055402503  0.4505425759032154  1.0000
  H   H3        1.0  0.8178503700994029  0.6968090863341101  0.8851464896669131  1.0000
  H   H4        1.0  0.18214963017585947  0.30319091324917236  0.11485350988044808  1.0000
  H   H5        1.0  0.08769015299205322  0.2411182625845447  0.771676520165794  1.0000
  H   H6        1.0  0.9123098460347158  0.7588817369854529  0.22832348004507347  1.0000
  H   H7        1.0  0.9386872648486163  0.13675924371528253  0.9050869541202616  1.0000
  H   H8        1.0  0.061312735427341676  0.8632407558646419  0.0949130461941156  1.0000
  H   H9        1.0  0.039031447038159105  0.7321891144426692  0.5803041850683275  1.0000
  H   H10       1.0  0.9609685533742038  0.2678108864080249  0.41969581466484823  1.0000
  H   H11       1.0  0.832628808545002  0.5133896653107358  0.5475755035421664  1.0000
  H   H12       1.0  0.16737119173095605  0.4866103342691885  0.45242449677221075  1.0000
  H   H13       1.0  0.816562611017778  0.3564451515518219  0.6246862485189959  1.0000
  H   H14       1.0  0.18343738800899095  0.6435548480181756  0.3753137516918716  1.0000
  H   H15       1.0  0.019056307939651018  0.46057147636338275  0.6200693244657052  1.0000
  H   H16       1.0  0.9809436923356114  0.5394285232198999  0.37993067508165596  1.0000
  H   H17       1.0  0.04573728800287001  0.5476984809960479  0.8850250711170305  1.0000
  H   H18       1.0  0.9542627124101888  0.4523015198512882  0.11497492938316126  1.0000
  H   H19       1.0  0.2210113175304829  0.651897921465194  0.8755588108613512  1.0000
  H   H20       1.0  0.7789886827454751  0.3481020781147304  0.12444118945302596  1.0000
  H   H21       1.0  0.7569469506221806  0.4163322268578225  0.8448328427069963  1.0000
  H   H22       1.0  0.24305304965308164  0.5836677727254601  0.15516715684036478  1.0000
  H   H23       1.0  0.8174332795587638  0.47378910662941176  0.9724775072141073  1.0000
  H   H24       1.0  0.18256672071719435  0.5262108929505126  0.027522493100269965  1.0000
  H   H25       1.0  0.32103984178567624  0.9669467467858622  0.41755302063105204  1.0000
  H   H26       1.0  0.6789601572403972  0.03305325278749359  0.5824469788127995  1.0000
  H   H27       1.0  0.7223164295498268  0.994549558752246  0.019375314797184004  1.0000
  H   H28       1.0  0.2776835707261312  0.0054504408276782245  0.9806246855171933  1.0000
  H   H29       1.0  0.491221977358947  0.47652684986741733  0.2758160664480962  1.0000
  H   H30       1.0  0.5087780230541118  0.5234731509799188  0.7241839340520957  1.0000
  H   H31       1.0  0.7024955441982428  0.44514762465975477  0.3207871504979027  1.0000
  H   H32       1.0  0.29750445496493133  0.5548523761810127  0.6792128491317635  1.0000
  H   H33       1.0  0.5556603561988906  0.48443555709130465  0.4127262972449563  1.0000
  H   H34       1.0  0.4443396440770674  0.5155644424886198  0.587273703069421  1.0000
  H   H35       1.0  0.6291059971819113  0.6979443156329901  0.9964855388279207  1.0000
  H   H36       1.0  0.37089400184485777  0.3020556839370075  0.0035144613829467524  1.0000
  H   H37       1.0  0.4294573218846269  0.6577082713784814  0.03498778830497315  1.0000
  H   H38       1.0  0.570542678528432  0.34229172946885467  0.9650122121952186  1.0000
  H   H39       1.0  0.6182218759423258  0.6397025404968893  0.11969399154275123  1.0000
  H   H40       1.0  0.3817781243329364  0.3602974590863933  0.8803060080046099  1.0000
  C   C1        1.0  0.07452795316850805  0.9912654971413851  0.6687491408777451  1.0000
  C   C2        1.0  0.92547204710745  0.008734502438539238  0.3312508594366322  1.0000
  C   C3        1.0  0.04323838117426812  0.10706538833881112  0.7585711196818313  1.0000
  C   C4        1.0  0.95676161910169  0.8929346112411132  0.24142888063254592  1.0000
  C   C5        1.0  0.9587750585643241  0.04924724188185646  0.8327927419496884  1.0000
  C   C6        1.0  0.041224941848734736  0.9507527589654796  0.16720725855050325  1.0000
  C   C7        1.0  0.9027083816115944  0.8770090739476732  0.8178002950437252  1.0000
  C   C8        1.0  0.09729161880146443  0.1229909268996628  0.1821997054564667  1.0000
  C   C9        1.0  0.927691981720983  0.7613327985562863  0.7238680601369184  1.0000
  C   C10       1.0  0.07230801855497496  0.23866720102363795  0.2761319401774588  1.0000
  C   C11       1.0  0.0148597869891668  0.8187334169165303  0.6514902174564666  1.0000
  C   C12       1.0  0.9851402132867912  0.18126658266339402  0.3485097828579106  1.0000
  C   C13       1.0  0.8849331783312242  0.4754512917342183  0.6200711121240968  1.0000
  C   C14       1.0  0.11506682194473382  0.5245487078457062  0.3799288881902804  1.0000
  C   C15       1.0  0.17419489697307194  0.039666736350964245  0.5911418592734167  1.0000
  C   C16       1.0  0.8258051034399868  0.9603332644963718  0.4088581412267752  1.0000
  C   C17       1.0  0.4124187128901008  0.8840560895916281  0.2734214856922823  1.0000
  C   C18       1.0  0.587581287522958  0.11594391125570806  0.7265785148079095  1.0000
  C   C19       1.0  0.5069572484305551  0.957391594789465  0.20653613263192233  1.0000
  C   C20       1.0  0.49304275184540286  0.04260840479045929  0.7934638676824548  1.0000
  C   C21       1.0  0.6562108551694938  0.01716818505271789  0.08755393580158874  1.0000
  C   C22       1.0  0.343789143994376  0.9828318157846915  0.9124460645950935  1.0000
  C   C23       1.0  0.5591781181968942  0.1306587472973635  0.22763624043639516  1.0000
  C   C24       1.0  0.4408218820790638  0.8693412522825609  0.772363759877982  1.0000
  C   C25       1.0  0.43800525297567117  0.17767777843221144  0.38555093717326344  1.0000
  C   C26       1.0  0.5619947472995912  0.822322221151071  0.6144490623740976  1.0000
  C   C27       1.0  0.5713091302756302  0.4233689483560987  0.33196350880397796  1.0000
  C   C28       1.0  0.4286908687504431  0.5766310512172572  0.6680364906398735  1.0000
  C   C29       1.0  0.5606717411900936  0.7093661759881312  0.06401901284656096  1.0000
  C   C30       1.0  0.4393282590858644  0.29063382359179324  0.9359809874678162  1.0000
  N   N1        1.0  0.5713109402175593  0.887775450377378  0.11563175094120716  1.0000
  N   N2        1.0  0.42868906005839863  0.11222454920254622  0.88436824937317  1.0000
  N   N3        1.0  0.6506726855295939  0.168241640603172  0.15330581509189717  1.0000
  N   N4        1.0  0.34932731474636414  0.8317583589767524  0.84669418522248  1.0000
  N   N5        1.0  0.5224271010013217  0.241597069094046  0.3146278514071375  1.0000
  N   N6        1.0  0.47757289941173703  0.7584029317532901  0.6853721490930543  1.0000
  N   N7        1.0  0.38920888972688067  0.005681448229354498  0.36217540461277925  1.0000
  N   N8        1.0  0.6107911105483816  0.9943185513539281  0.6378245949345819  1.0000
  O   O1        1.0  0.2223634236406914  0.20508680791899528  0.6062106741718954  1.0000
  O   O2        1.0  0.7776365753860777  0.7949131916510023  0.3937893260389721  1.0000
  O   O3        1.0  0.21337748231913356  0.9318827404047293  0.517310258795273  1.0000
  O   O4        1.0  0.7866225179561288  0.06811725917855325  0.482689740752088  1.0000
  O   O5        1.0  0.8243589526351555  0.823911973998249  0.8923461565302395  1.0000
  O   O6        1.0  0.17564104652871437  0.17608802683916025  0.10765384386644278  1.0000
  O   O7        1.0  0.861542282528901  0.5976517792660515  0.7129536298874737  1.0000
  O   O8        1.0  0.138457717747057  0.40234822031387285  0.28704637042690356  1.0000
  O   O9        1.0  0.1694460625399581  0.5575835100705633  0.9026692778288021  1.0000
  O   O10       1.0  0.8305539377353044  0.44241648951271934  0.09733072171855894  1.0000
  O   O11       1.0  0.8250481616666733  0.5056129019078218  0.9030274367087995  1.0000
  O   O12       1.0  0.1749518386092847  0.4943870976721026  0.09697256360557778  1.0000
  O   O13       1.0  0.35518068418131293  0.7324643283052572  0.2610134009642446  1.0000
  O   O14       1.0  0.6448193148447603  0.2675356712680985  0.7389865984796069  1.0000
  O   O15       1.0  0.4058536511807574  0.27268261295773244  0.4679088104038457  1.0000
  O   O16       1.0  0.5941463490945049  0.7273173866255501  0.5320911891435154  1.0000
