data_image0
_chemical_formula_structural       H10C8N14O4
_chemical_formula_sum              "H10 C8 N14 O4"
_cell_length_a       5.38564520962394
_cell_length_b       6.780289470224304
_cell_length_c       10.464191370094282
_cell_angle_alpha    83.16289821904508
_cell_angle_beta     77.94518180940776
_cell_angle_gamma    71.64489926999609

_space_group_name_H-M_alt    "P 1"
_space_group_IT_number       1

loop_
  _space_group_symop_operation_xyz
  'x, y, z'

loop_
  _atom_site_type_symbol
  _atom_site_label
  _atom_site_symmetry_multiplicity
  _atom_site_fract_x
  _atom_site_fract_y
  _atom_site_fract_z
  _atom_site_occupancy
  H   H1        1.0  0.18099801821982237  0.103039088632252  0.24593578240858788  1.0000
  H   H2        1.0  0.8190019812227722  0.8969609115584318  0.7540642182595323  1.0000
  H   H3        1.0  0.8287713838170051  0.21755742000277084  0.04348586832054161  1.0000
  H   H4        1.0  0.17122861562589872  0.7824425801838197  0.9565141313922245  1.0000
  H   H5        1.0  0.5389608005570489  0.33155266182393334  0.8325901634995495  1.0000
  H   H6        1.0  0.4610391988855456  0.6684473383667506  0.16740983716857075  1.0000
  H   H7        1.0  0.1924686779746773  0.2652570321910157  0.7090941221821276  1.0000
  H   H8        1.0  0.8075313214682265  0.7347429679955749  0.2909058775306386  1.0000
  H   H9        1.0  0.9611473807546614  0.4767012982427087  0.7686843283443039  1.0000
  H   H10       1.0  0.038852618688242295  0.5232987019438821  0.23131567136846246  1.0000
  C   C1        1.0  0.31164828856319376  0.8332584296373812  0.5097474350363661  1.0000
  C   C2        1.0  0.68835171087971  0.16674157054920957  0.49025256467640016  1.0000
  C   C3        1.0  0.041212061148509976  0.9376855776640195  0.5547096407637925  1.0000
  C   C4        1.0  0.9587879382943939  0.06231442252257113  0.44529035894897373  1.0000
  C   C5        1.0  0.02992895548100496  0.2320029622660185  0.020286051807091993  1.0000
  C   C6        1.0  0.9700710439618987  0.7679970379205723  0.9797139479056742  1.0000
  C   C7        1.0  0.39566840436036854  0.29140407028746224  0.9122697317739996  1.0000
  C   C8        1.0  0.6043315969803014  0.7085959299014537  0.08773026773396483  1.0000
  N   N1        1.0  0.17136187442417897  0.029805809758837776  0.3453536542812453  1.0000
  N   N2        1.0  0.8286381250184155  0.9701941904318462  0.6546463463868749  1.0000
  N   N3        1.0  0.386253127435084  0.8915292685203099  0.3833246173396905  1.0000
  N   N4        1.0  0.6137468720075105  0.10847073167037402  0.6166753833284297  1.0000
  N   N5        1.0  0.4942060303099069  0.6897034066773203  0.58151188327387  1.0000
  N   N6        1.0  0.505793969132997  0.3102965935092703  0.41848811643889616  1.0000
  N   N7        1.0  0.42654600424670297  0.24336061425580854  0.03477633968522365  1.0000
  N   N8        1.0  0.573453997093967  0.7566393859331072  0.9652236598227408  1.0000
  N   N9        1.0  0.1937817914018715  0.2083121579410134  0.10309365859033462  1.0000
  N   N10       1.0  0.8062182080410324  0.7916878422455772  0.8969063411224316  1.0000
  N   N11       1.0  0.15032463612059585  0.2849800934859819  0.8989284725201933  1.0000
  N   N12       1.0  0.8496753652197648  0.7150199067070273  0.10107152794312532  1.0000
  N   N13       1.0  0.038495209886126334  0.3189884084611682  0.7852272409664717  1.0000
  N   N14       1.0  0.9615047895567773  0.6810115917254225  0.21477275874629453  1.0000
  O   O1        1.0  0.7276040986206067  0.6107661444288485  0.5255853003952228  1.0000
  O   O2        1.0  0.2723959008219877  0.38923385576183545  0.47441470027289745  1.0000
  O   O3        1.0  0.405620614042155  0.6523613749817114  0.6989959767332251  1.0000
  O   O4        1.0  0.594379387298515  0.34763862520720423  0.30100402277473937  1.0000
