data_image0
_chemical_formula_structural       H92B2C72N18O16S2I4
_chemical_formula_sum              "H92 B2 C72 N18 O16 S2 I4"
_cell_length_a       11.464654572684761
_cell_length_b       12.640993056642515
_cell_length_c       15.340236839166732
_cell_angle_alpha    99.72994191950083
_cell_angle_beta     94.59317849322365
_cell_angle_gamma    102.62422910423345

_space_group_name_H-M_alt    "P 1"
_space_group_IT_number       1

loop_
  _space_group_symop_operation_xyz
  'x, y, z'

loop_
  _atom_site_type_symbol
  _atom_site_label
  _atom_site_symmetry_multiplicity
  _atom_site_fract_x
  _atom_site_fract_y
  _atom_site_fract_z
  _atom_site_occupancy
  H   H1        1.0  0.7534024316767476  0.5208052593974603  0.21155072356628807  1.0000
  H   H2        1.0  0.24659756845396194  0.4791947404680612  0.7884492762248846  1.0000
  H   H3        1.0  0.9516531648786832  0.8316805286846632  0.1618807141544255  1.0000
  H   H4        1.0  0.048346835252026314  0.16831947118085813  0.8381192856367471  1.0000
  H   H5        1.0  0.912118881012321  0.7561782846052174  0.9981303570442749  1.0000
  H   H6        1.0  0.08788111922444108  0.2438217154210084  0.0018696434132323613  1.0000
  H   H7        1.0  0.793432405383504  0.5654850690609049  0.9421612371923714  1.0000
  H   H8        1.0  0.20656759494713495  0.4345149316148257  0.057838762596905936  1.0000
  H   H9        1.0  0.8505062391315293  0.2697137617380347  0.9120508700423569  1.0000
  H   H10       1.0  0.1494937601275359  0.7302862381312764  0.08794912974569381  1.0000
  H   H11       1.0  0.8572463626462665  0.4102345796946581  0.903097582776942  1.0000
  H   H12       1.0  0.14275363748444306  0.5897654201708632  0.09690241701423064  1.0000
  H   H13       1.0  0.9212882929717745  0.37836244773832284  0.004607005201838049  1.0000
  H   H14       1.0  0.0787117072649875  0.6216375522879031  0.9953929952556692  1.0000
  H   H15       1.0  0.20228598198931216  0.05203347160129844  0.8639990982131031  1.0000
  H   H16       1.0  0.7977140181413974  0.947966528264223  0.13600090157806963  1.0000
  H   H17       1.0  0.33045798980776964  0.9706071991934325  0.1103269723036745  1.0000
  H   H18       1.0  0.6695420104289924  0.029392800832793317  0.8896730281538328  1.0000
  H   H19       1.0  0.48006357589990856  0.22318493189054886  0.8302037965151579  1.0000
  H   H20       1.0  0.5199364233591568  0.7768150679787622  0.1697962032728929  1.0000
  H   H21       1.0  0.39029652116414604  0.30578323021481096  0.8817977778159646  1.0000
  H   H22       1.0  0.6097034789665633  0.6942167696507104  0.11820222197520794  1.0000
  H   H23       1.0  0.32174419795408427  0.18703880576565193  0.7998767591702127  1.0000
  H   H24       1.0  0.6782558022826778  0.812961194260574  0.20012324128729458  1.0000
  H   H25       1.0  0.1468241166452413  0.8359753576752171  0.9346113406126428  1.0000
  H   H26       1.0  0.8531758835915209  0.16402464235100883  0.06538865984486439  1.0000
  H   H27       1.0  0.06158133180105778  0.9371468053573209  0.9477780784666469  1.0000
  H   H28       1.0  0.9384186686356337  0.06285319547911432  0.05222192198896531  1.0000
  H   H29       1.0  0.12002523470681815  0.8934190325132074  0.04307400556932454  1.0000
  H   H30       1.0  0.8799747645522471  0.10658096735610348  0.9569259942187262  1.0000
  H   H31       1.0  0.6329598790918145  0.1374597746831416  0.12753406384602883  1.0000
  H   H32       1.0  0.36704012114494755  0.8625402253430843  0.8724659366114784  1.0000
  H   H33       1.0  0.5259239719047426  0.05630838073530094  0.18227459242200386  1.0000
  H   H34       1.0  0.47407602833201945  0.943691619290925  0.8177254080355034  1.0000
  H   H35       1.0  0.5392262776272786  0.20052644595993946  0.19409712455623132  1.0000
  H   H36       1.0  0.4607737216317868  0.7994735539093715  0.8059028752318195  1.0000
  H   H37       1.0  0.11144444219317813  0.7404982112492777  0.24709238473357922  1.0000
  H   H38       1.0  0.8885555580435839  0.2595017887769482  0.7529076157239281  1.0000
  H   H39       1.0  0.10556366389543412  0.8835868355613057  0.2792025351598222  1.0000
  H   H40       1.0  0.8944363362352755  0.11641316430421557  0.7207974646313504  1.0000
  H   H41       1.0  0.17745861706959784  0.8159653346487556  0.35400400445771507  1.0000
  H   H42       1.0  0.8225413823893968  0.18403466603076446  0.6459959953284403  1.0000
  H   H43       1.0  0.8347394243654945  0.6312457858635968  0.6951540024693974  1.0000
  H   H44       1.0  0.16526057499962338  0.3687542141664187  0.30484599798498807  1.0000
  H   H45       1.0  0.7502703310784051  0.9438688369502812  0.6828800884888182  1.0000
  H   H46       1.0  0.24972966925223375  0.05613116372544925  0.3171199113004591  1.0000
  H   H47       1.0  0.9849354782869361  0.5968097556199308  0.5221519170653534  1.0000
  H   H48       1.0  0.015064521843773439  0.40319024424559063  0.47784808272581925  1.0000
  H   H49       1.0  0.8627608038879407  0.5147680904097076  0.5620651879276601  1.0000
  H   H50       1.0  0.13723919654875072  0.4852319104267275  0.4379348125279519  1.0000
  H   H51       1.0  0.8439302251846217  0.5520710042265333  0.455824971049064  1.0000
  H   H52       1.0  0.15606977494608779  0.4479289956389879  0.5441750287421085  1.0000
  H   H53       1.0  0.687772118663548  0.8121900839716698  0.8081783366281725  1.0000
  H   H54       1.0  0.3122278805955172  0.1878099158976411  0.1918216631598782  1.0000
  H   H55       1.0  0.8004703240218  0.7392529740195537  0.8274102030750856  1.0000
  H   H56       1.0  0.19952967610890954  0.2607470258459677  0.17258979671608707  1.0000
  H   H57       1.0  0.8391329486093786  0.8851487293324306  0.8344710635480135  1.0000
  H   H58       1.0  0.1608670515213309  0.11485127053309067  0.16552893624315915  1.0000
  H   H59       1.0  0.7384879493099009  0.005534997241333015  0.5465904594460037  1.0000
  H   H60       1.0  0.2615120508208086  0.9944650026241884  0.45340954034516895  1.0000
  H   H61       1.0  0.7380263369453152  0.915628066954341  0.44420351822973736  1.0000
  H   H62       1.0  0.26197366338532374  0.08437193372138962  0.5557964815595401  1.0000
  H   H63       1.0  0.875243799660497  0.0016125350208970536  0.5013868038867602  1.0000
  H   H64       1.0  0.12475620047021248  0.9983874648446244  0.49861319590441255  1.0000
  H   H65       1.0  0.11220570898521735  0.429582343425849  0.1720365241626982  1.0000
  H   H66       1.0  0.8877942911454921  0.5704176564396725  0.8279634756284745  1.0000
  H   H67       1.0  0.05209618421281788  0.5190568279470668  0.29960939224439836  1.0000
  H   H68       1.0  0.9479038159178916  0.48094317191845454  0.7003906075467742  1.0000
  H   H69       1.0  0.7795827511286559  0.33564018200113477  0.23081187018458166  1.0000
  H   H70       1.0  0.22041724813040936  0.6643598178681762  0.769188129603469  1.0000
  H   H71       1.0  0.3489666125382037  0.8300795670761512  0.24888788034541626  1.0000
  H   H72       1.0  0.6510333876985583  0.16992043295007478  0.751112120112091  1.0000
  H   H73       1.0  0.41615431393801633  0.9531417347415787  0.2906171381767801  1.0000
  H   H74       1.0  0.5838456861926932  0.04685826512394264  0.7093828616143926  1.0000
  H   H75       1.0  0.448011131585993  0.42596685382004645  0.3832583297777041  1.0000
  H   H76       1.0  0.5519888677791248  0.574033146209969  0.6167416706766812  1.0000
  H   H77       1.0  0.5345281815129198  0.4074248093878498  0.48022080354385743  1.0000
  H   H78       1.0  0.46547181872384225  0.5925751906383762  0.5197791969136499  1.0000
  H   H79       1.0  0.43710286643504276  0.2906594491918029  0.4067118539443324  1.0000
  H   H80       1.0  0.5628971338955961  0.7093405514839276  0.593288145844945  1.0000
  H   H81       1.0  0.7448307126347492  0.13370547951051184  0.32148795872335206  1.0000
  H   H82       1.0  0.2551692876020128  0.8662945205157142  0.6785120417341551  1.0000
  H   H83       1.0  0.8755082574893237  0.21029814113329803  0.28511780089323613  1.0000
  H   H84       1.0  0.12449174264138574  0.7897018587322233  0.7148821988979366  1.0000
  H   H85       1.0  0.876737142763174  0.19696467317780628  0.3993554917218483  1.0000
  H   H86       1.0  0.12326285736753527  0.803035326687715  0.6006445080693243  1.0000
  H   H87       1.0  0.7123774985549832  0.23667888587678723  0.5294830300306482  1.0000
  H   H88       1.0  0.2876225015757263  0.7633211139887341  0.4705169697605244  1.0000
  H   H89       1.0  0.6240048758660526  0.14369932698974822  0.5885487630716487  1.0000
  H   H90       1.0  0.3759951242646569  0.8563006728757733  0.411451236719524  1.0000
  H   H91       1.0  0.5664196911964097  0.24974014481972928  0.5514296760277765  1.0000
  H   H92       1.0  0.43358030806265563  0.7502598550495818  0.44857032376027417  1.0000
  B   B1        1.0  0.9461953619172023  0.3970064476864493  0.2086717584908218  1.0000
  B   B2        1.0  0.053804638213507144  0.6029935521790719  0.7913282413003508  1.0000
  C   C1        1.0  0.7870266558805393  0.5727521938538579  0.16485105218449278  1.0000
  C   C2        1.0  0.21297334425017014  0.42724780601166346  0.8351489476066798  1.0000
  C   C3        1.0  0.8569754171832875  0.6802079068525412  0.19661186516098297  1.0000
  C   C4        1.0  0.14302458294742199  0.31979209301298017  0.8033881346301897  1.0000
  C   C5        1.0  0.9018643266414775  0.7467570973880653  0.13655948595013248  1.0000
  C   C6        1.0  0.09813567359528451  0.2532429026381606  0.8634405145073749  1.0000
  C   C7        1.0  0.8783800723912509  0.7052013362829618  0.045360530881315884  1.0000
  C   C8        1.0  0.12161992784551114  0.2947986637432641  0.9546394695761913  1.0000
  C   C9        1.0  0.8116608053889548  0.5975661340695235  0.013502374516595769  1.0000
  C   C10       1.0  0.1883391948478073  0.40243386595670255  0.9864976259409115  1.0000
  C   C11       1.0  0.7654175321086899  0.5310811498833756  0.07311178927181705  1.0000
  C   C12       1.0  0.23458246802201962  0.4689188499821458  0.9268882105193555  1.0000
  C   C13       1.0  0.6953556619681703  0.417836919747187  0.0401871974703287  1.0000
  C   C14       1.0  0.3046443381625392  0.5821630801183344  0.959812802320844  1.0000
  C   C15       1.0  0.5828548545201164  0.3629734578037098  0.05726111616665396  1.0000
  C   C16       1.0  0.41714514591657514  0.6370265430327252  0.9427388842889581  1.0000
  C   C17       1.0  0.8493838329089005  0.35147070908704475  0.9483816252824642  1.0000
  C   C18       1.0  0.15061616722180898  0.6485292907784767  0.0516183745087085  1.0000
  C   C19       1.0  0.46011040765625383  0.16777624885570253  0.0012096009021140863  1.0000
  C   C20       1.0  0.5398895916028115  0.8322237510136085  0.9987903988859366  1.0000
  C   C21       1.0  0.37479037698648654  0.15060456851805126  0.9263091134938617  1.0000
  C   C22       1.0  0.6252096231442229  0.84939543134747  0.07369088629731085  1.0000
  C   C23       1.0  0.270901352797198  0.06678984584185794  0.9210320120626582  1.0000
  C   C24       1.0  0.7290986473335114  0.9332101540236635  0.07896798772851456  1.0000
  C   C25       1.0  0.2527161001975185  0.0020873334599435613  0.9866085478747275  1.0000
  C   C26       1.0  0.7472838992614762  0.9979126672195766  0.013391451911428  1.0000
  C   C27       1.0  0.34215380472011836  0.02085139344629614  0.058921834330911464  1.0000
  C   C28       1.0  0.6578461955166437  0.9791486065799297  0.9410781661265958  1.0000
  C   C29       1.0  0.4476265146703083  0.10421405594271496  0.06791733709653948  1.0000
  C   C30       1.0  0.552373484588757  0.8957859439265959  0.9320826626915112  1.0000
  C   C31       1.0  0.39298369437963515  0.21976338118219907  0.8559417911344077  1.0000
  C   C32       1.0  0.6070163048794303  0.7802366186871118  0.14405820865364308  1.0000
  C   C33       1.0  0.1393793913511464  0.9126173749199626  0.977816443850514  1.0000
  C   C34       1.0  0.8606206087795631  0.08738262494555885  0.022183555940658583  1.0000
  C   C35       1.0  0.5415370260574371  0.12540308168247677  0.14683324641582593  1.0000
  C   C36       1.0  0.4584629740732724  0.8745969181830447  0.8531667533753466  1.0000
  C   C37       1.0  0.8807862445637227  0.7202437773489099  0.2926945960884864  1.0000
  C   C38       1.0  0.11921375556698673  0.2797562225166114  0.7073054037026862  1.0000
  C   C39       1.0  0.8031927703650221  0.7136340224896799  0.3580322654265994  1.0000
  C   C40       1.0  0.1968072297656874  0.28636597737584146  0.6419677343645732  1.0000
  C   C41       1.0  0.10404470839022888  0.8056402820076665  0.3015010199558114  1.0000
  C   C42       1.0  0.8959552917404807  0.19435971785785505  0.6984989798353611  1.0000
  C   C43       1.0  0.8421458120046348  0.7695998396475008  0.5252091983974342  1.0000
  C   C44       1.0  0.15785418812607468  0.23040016021802057  0.4747908013937384  1.0000
  C   C45       1.0  0.8520915975931749  0.6831652148018692  0.5696085957461626  1.0000
  C   C46       1.0  0.1479084026435871  0.3168347852243568  0.4303914047113447  1.0000
  C   C47       1.0  0.8287312139039089  0.6967420922122027  0.6584267052876259  1.0000
  C   C48       1.0  0.17126878633285317  0.30325790781402323  0.34157329516988133  1.0000
  C   C49       1.0  0.7965170481970146  0.7913270816367708  0.7007436498048054  1.0000
  C   C50       1.0  0.20348295106205072  0.20867291823254028  0.29925634998324524  1.0000
  C   C51       1.0  0.7799950512574827  0.8718090978534287  0.6513344337979183  1.0000
  C   C52       1.0  0.22000494887322677  0.12819090201209268  0.3486655659932544  1.0000
  C   C53       1.0  0.8030737864204297  0.863059429562023  0.5627041221677402  1.0000
  C   C54       1.0  0.19692621371027993  0.13694057030349832  0.43729587762343236  1.0000
  C   C55       1.0  0.8871714746542194  0.5814451313303035  0.5248558085540499  1.0000
  C   C56       1.0  0.11282852460484592  0.4185548685390074  0.47514419123400076  1.0000
  C   C57       1.0  0.7800970224978745  0.8070387475385222  0.7977128863382243  1.0000
  C   C58       1.0  0.219902977632835  0.19296125232699907  0.20228711345294823  1.0000
  C   C59       1.0  0.7879555682983596  0.9507419858158762  0.510669220361736  1.0000
  C   C60       1.0  0.21204443203227946  0.0492580148598543  0.48933077942754144  1.0000
  C   C61       1.0  0.4988365023073275  0.37156856508661756  0.41025668320355474  1.0000
  C   C62       1.0  0.501163497823382  0.6284314347789038  0.589743316587618  1.0000
  C   C63       1.0  0.5967611418947942  0.35938918277882964  0.3588305272465678  1.0000
  C   C64       1.0  0.40323885823591527  0.6406108170866917  0.6411694725446049  1.0000
  C   C65       1.0  0.8437532472024681  0.15446260681517393  0.3303839685392078  1.0000
  C   C66       1.0  0.15624675292824133  0.8455373930503475  0.6696160312519649  1.0000
  C   C67       1.0  0.8876162728584351  0.055325028129046674  0.31056713922709944  1.0000
  C   C68       1.0  0.11238372727227451  0.9446749717364747  0.6894328605640733  1.0000
  C   C69       1.0  0.6210874734625614  0.18971731286441598  0.5340106608917748  1.0000
  C   C70       1.0  0.3789125266681481  0.8102826870011055  0.46598933889939786  1.0000
  C   C71       1.0  0.5707681842786162  0.11494572124215398  0.4511247974086205  1.0000
  C   C72       1.0  0.4292318158520932  0.8850542786233673  0.5488752023825522  1.0000
  N   N1        1.0  0.7339153299740485  0.3404107327762632  0.9834539893273164  1.0000
  N   N2        1.0  0.2660846701566611  0.6595892670892582  0.016546010463856238  1.0000
  N   N3        1.0  0.6569661768841658  0.24300054406621974  0.9649454968703159  1.0000
  N   N4        1.0  0.3430338232465436  0.7569994557993017  0.03505450292085675  1.0000
  N   N5        1.0  0.5652208508825287  0.2572690647050312  0.009944926842693163  1.0000
  N   N6        1.0  0.4347791493542334  0.7427309353211947  0.990055073614814  1.0000
  N   N7        1.0  0.9916933476825329  0.7714701306774477  0.33797206742848723  1.0000
  N   N8        1.0  0.008306652448176514  0.22852986918807364  0.6620279323626854  1.0000
  N   N9        1.0  0.9903883444863995  0.7966709549255258  0.4250310157917963  1.0000
  N   N10       1.0  0.009611655644310045  0.2033290449399955  0.5749689839993763  1.0000
  N   N11       1.0  0.8750436483563603  0.7611557196591604  0.4362662039176674  1.0000
  N   N12       1.0  0.12495635177434926  0.23884428020636098  0.5637337958735053  1.0000
  N   N13       1.0  0.6750181205499864  0.3489178310661835  0.31674162884639756  1.0000
  N   N14       1.0  0.3249818788151314  0.651082168963832  0.6832583716079877  1.0000
  N   N15       1.0  0.9222841071470711  0.9751741071376496  0.2935007805543634  1.0000
  N   N16       1.0  0.0777158929836383  0.024825892727871685  0.7064992192368093  1.0000
  N   N17       1.0  0.5310773820277253  0.05465018815104648  0.3839998280930651  1.0000
  N   N18       1.0  0.46892261820903675  0.9453498118751793  0.616000172364442  1.0000
  O   O1        1.0  0.34838192036665117  0.6876931915931741  0.24184793873093813  1.0000
  O   O2        1.0  0.6516180797640584  0.3123068082723472  0.7581520610602345  1.0000
  O   O3        1.0  0.18979949391585607  0.5999861068820137  0.3225292433246166  1.0000
  O   O4        1.0  0.8102005062148534  0.4000138929835077  0.6774707564665561  1.0000
  O   O5        1.0  0.3912405080170446  0.5697763998012049  0.34569187851289623  1.0000
  O   O6        1.0  0.6087594922197175  0.4302236002250211  0.6543081219446112  1.0000
  O   O7        1.0  0.2646646512415276  0.4885261851036298  0.2035474430658392  1.0000
  O   O8        1.0  0.7353353491951639  0.5114738157328053  0.7964525573897728  1.0000
  O   O9        1.0  0.02862388497271441  0.38707682485206213  0.14864939337891034  1.0000
  O   O10       1.0  0.9713761154639771  0.612923175984373  0.8513506070767016  1.0000
  O   O11       1.0  0.9683149565519774  0.47154905798367425  0.2878489842842592  1.0000
  O   O12       1.0  0.031685042813140316  0.5284509420463412  0.7121510161701261  1.0000
  O   O13       1.0  0.8336786665370534  0.32523335833872613  0.18468765672861875  1.0000
  O   O14       1.0  0.16632133369970858  0.6747666416874998  0.8153123437288886  1.0000
  O   O15       1.0  0.34272943347850443  0.9075329133156709  0.25377837206193843  1.0000
  O   O16       1.0  0.6572705658866135  0.09246708671434459  0.7462216283924469  1.0000
  S   S1        1.0  0.2986865073895488  0.5887330396532303  0.27851519888151494  1.0000
  S   S2        1.0  0.7013134927411606  0.41126696021229103  0.7214848009096578  1.0000
  I   I1        1.0  0.45530857546973175  0.4209694159300791  0.12849351396554312  1.0000
  I   I2        1.0  0.5446914246609778  0.5790305839354422  0.8715064858256295  1.0000
  I   I3        1.0  0.6171843564003565  0.6531198317251585  0.34879339228314016  1.0000
  I   I4        1.0  0.382815643730353  0.34688016814036277  0.6512066075080326  1.0000
