data_image0
_chemical_formula_structural       H128C128N8O2
_chemical_formula_sum              "H128 C128 N8 O2"
_cell_length_a       13.397548327950622
_cell_length_b       14.127197902196398
_cell_length_c       15.287749403600314
_cell_angle_alpha    108.49131292488988
_cell_angle_beta     115.46858393051853
_cell_angle_gamma    90.98340795202469

_space_group_name_H-M_alt    "P 1"
_space_group_IT_number       1

loop_
  _space_group_symop_operation_xyz
  'x, y, z'

loop_
  _atom_site_type_symbol
  _atom_site_label
  _atom_site_symmetry_multiplicity
  _atom_site_fract_x
  _atom_site_fract_y
  _atom_site_fract_z
  _atom_site_occupancy
  H   H1        1.0  0.10967950542656246  0.3877163356617528  0.3408781791000491  1.0000
  H   H2        1.0  0.8903204948732679  0.6122836644871965  0.6591218211813922  1.0000
  H   H3        1.0  0.06345993031238685  0.5272218037142368  0.47921335597807935  1.0000
  H   H4        1.0  0.9365400696169727  0.4727781961555199  0.5207866435271169  1.0000
  H   H5        1.0  0.08428947500057944  0.6750590829871115  0.5977383019856894  1.0000
  H   H6        1.0  0.9157105249287801  0.3249409168826454  0.4022616975195069  1.0000
  H   H7        1.0  0.2535553768110706  0.9835410098229496  0.7909195983879169  1.0000
  H   H8        1.0  0.7464446234887597  0.01645899032599965  0.2090804018935243  1.0000
  H   H9        1.0  0.6069384345608135  0.18340114489013898  0.8338948056495583  1.0000
  H   H10       1.0  0.39306156536854603  0.8165988549796179  0.16610519385563788  1.0000
  H   H11       1.0  0.4389804011757399  0.10214897458198231  0.8329060026691634  1.0000
  H   H12       1.0  0.5610195991240905  0.897851025566967  0.16709399761227786  1.0000
  H   H13       1.0  0.7789506897751484  0.2290276412448561  0.7986418102497319  1.0000
  H   H14       1.0  0.221049310524682  0.7709723589040932  0.20135819003170932  1.0000
  H   H15       1.0  0.9037795534864834  0.09064508724171842  0.5799293848372731  1.0000
  H   H16       1.0  0.0962204468133469  0.9093549129072308  0.4200706154441682  1.0000
  H   H17       1.0  0.8804314389501864  0.9789204323448406  0.4295638733901707  1.0000
  H   H18       1.0  0.11956856134964411  0.0210795678041088  0.5704361268912707  1.0000
  H   H19       1.0  0.8096121241282668  0.7951770275023776  0.2770942293369341  1.0000
  H   H20       1.0  0.19038787541753624  0.20482297265124014  0.7229057709283074  1.0000
  H   H21       1.0  0.47072145594908477  0.7579847423753667  0.3205667948717138  1.0000
  H   H22       1.0  0.5292785443507456  0.24201525777358257  0.6794332054097275  1.0000
  H   H23       1.0  0.32104163643058914  0.6705241481857588  0.33548608750334935  1.0000
  H   H24       1.0  0.6789583638692412  0.3294758519631905  0.664513912778092  1.0000
  H   H25       1.0  0.44262384367460894  0.3901603325677833  0.2621359129769428  1.0000
  H   H26       1.0  0.5573761566252213  0.609839667581166  0.7378640873044986  1.0000
  H   H27       1.0  0.5867876904520037  0.4757546968516046  0.24035380124583314  1.0000
  H   H28       1.0  0.41321230909379947  0.5242453033020131  0.7596461990194084  1.0000
  H   H29       1.0  0.307991346212332  0.14274783148207806  0.32006604620647894  1.0000
  H   H30       1.0  0.6920086533334712  0.8572521686715396  0.6799339540587627  1.0000
  H   H31       1.0  0.09318990925741592  0.174018999533062  0.03068843215602479  1.0000
  H   H32       1.0  0.9068100910424144  0.8259810006158874  0.9693115681254165  1.0000
  H   H33       1.0  0.47230223016831047  0.36728570206281164  0.4487649503091297  1.0000
  H   H34       1.0  0.5276977701315197  0.6327142980861377  0.5512350499723115  1.0000
  H   H35       1.0  0.3972260156334799  0.2830326666490244  0.4740425194586834  1.0000
  H   H36       1.0  0.6027739839123233  0.7169673335045935  0.5259574808065582  1.0000
  H   H37       1.0  0.36405601216655287  0.4048696291632684  0.4813428248057332  1.0000
  H   H38       1.0  0.6359439873792501  0.5951303709903493  0.5186571754595083  1.0000
  H   H39       1.0  0.23852997839474888  0.9990844406148331  0.10787905366783777  1.0000
  H   H40       1.0  0.7614700219050814  0.0009155595341160058  0.8921209466136034  1.0000
  H   H41       1.0  0.0943452558006498  0.006157909477941027  0.04292139660508439  1.0000
  H   H42       1.0  0.9056547444787293  0.9938420899655732  0.9570786036832403  1.0000
  H   H43       1.0  0.1528945211493469  0.9966056221571334  0.16828892098157847  1.0000
  H   H44       1.0  0.8471054791504835  0.003394377991815855  0.8317110792998629  1.0000
  H   H45       1.0  0.09196208355455283  0.43534960416255175  0.1340863234822324  1.0000
  H   H46       1.0  0.9080379159912503  0.564650395991066  0.8659136767830092  1.0000
  H   H47       1.0  0.0675911292627902  0.33373866959317594  0.018834378470482104  1.0000
  H   H48       1.0  0.9324088706665693  0.6662613302765809  0.9811656210347142  1.0000
  H   H49       1.0  0.19494088375072732  0.4227331295438802  0.09026827313113193  1.0000
  H   H50       1.0  0.8050591161786321  0.5772668703258766  0.9097317263740643  1.0000
  H   H51       1.0  0.9456153407830511  0.87423476111728  0.6162113328779303  1.0000
  H   H52       1.0  0.054384659516779385  0.12576523903166922  0.38378866740351103  1.0000
  H   H53       1.0  0.891656418746645  0.8225246753767891  0.6825901461698063  1.0000
  H   H54       1.0  0.10834358155318528  0.17747532477216027  0.3174098541116351  1.0000
  H   H55       1.0  0.9336431095232994  0.7426812172653586  0.5934411871840439  1.0000
  H   H56       1.0  0.06635689002250367  0.2573187828882591  0.4065588130811976  1.0000
  H   H57       1.0  0.022344127704140616  0.7599989313557648  0.8236253979268817  1.0000
  H   H58       1.0  0.9776558725956898  0.24000106879318436  0.17637460235455948  1.0000
  H   H59       1.0  0.168954319376157  0.7727509898754449  0.8600829602178945  1.0000
  H   H60       1.0  0.8310456809236734  0.2272490102735044  0.13991704006354685  1.0000
  H   H61       1.0  0.0712214437135429  0.6811897955215801  0.7395165485070764  1.0000
  H   H62       1.0  0.9287785565862876  0.31881020462736925  0.26048345177436505  1.0000
  H   H63       1.0  0.0882230128751143  0.00264847871632118  0.7918026762413151  1.0000
  H   H64       1.0  0.9117769870542453  0.9973515211534357  0.20819732326388127  1.0000
  H   H65       1.0  0.17887136787478014  0.9600806316224101  0.8912498050411397  1.0000
  H   H66       1.0  0.8211286324250502  0.03991936852653927  0.10875019524030156  1.0000
  H   H67       1.0  0.03254342534477951  0.9461885909047663  0.8532719534590465  1.0000
  H   H68       1.0  0.9674565742010236  0.05381140924885146  0.14672804680619514  1.0000
  H   H69       1.0  0.13037596550384797  0.2731044369392642  0.8745757936513799  1.0000
  H   H70       1.0  0.8696240347959823  0.7268955632096851  0.12542420663006118  1.0000
  H   H71       1.0  0.07476773781832934  0.1489889063682414  0.7776579235995839  1.0000
  H   H72       1.0  0.9252322621110303  0.8510110935015155  0.22234207590561236  1.0000
  H   H73       1.0  0.031243130244202784  0.18782385640542035  0.8756006920512976  1.0000
  H   H74       1.0  0.9687568700556276  0.812176143743529  0.1243993082301437  1.0000
  H   H75       1.0  0.06811937645411459  0.34092118067080657  0.7287149810555208  1.0000
  H   H76       1.0  0.931880623475245  0.6590788191989503  0.27128501844967534  1.0000
  H   H77       1.0  0.9248382468711254  0.31824375351015505  0.6362102655021629  1.0000
  H   H78       1.0  0.07516175342870506  0.6817562466387942  0.3637897347792783  1.0000
  H   H79       1.0  0.005041610172736087  0.22025843341129042  0.6295512316817831  1.0000
  H   H80       1.0  0.9949583890025961  0.7797415664631351  0.3704487678072135  1.0000
  H   H81       1.0  0.9171064495895035  0.33792444495783086  0.881959240251511  1.0000
  H   H82       1.0  0.08289354995629968  0.6620755551957868  0.11804076001373057  1.0000
  H   H83       1.0  0.8673226846095532  0.380850937004125  0.7757840780134764  1.0000
  H   H84       1.0  0.13267731569027727  0.6191490631448243  0.22421592226796505  1.0000
  H   H85       1.0  0.012722963034452209  0.4096207033883687  0.8653454557464277  1.0000
  H   H86       1.0  0.9872770372653781  0.5903792967605807  0.13465454453501358  1.0000
  H   H87       1.0  0.6234892716744844  0.5366560043032865  0.9535042886458902  1.0000
  H   H88       1.0  0.37651072825487525  0.4633439955664704  0.04649571085930613  1.0000
  H   H89       1.0  0.8573931384126217  0.445668836668706  0.1968734322458834  1.0000
  H   H90       1.0  0.14260686076271065  0.5543311632057193  0.8031265672431132  1.0000
  H   H91       1.0  0.5739553793345389  0.7401289580220023  0.07374460160389347  1.0000
  H   H92       1.0  0.42604462059482073  0.25987104184775467  0.9262553979013028  1.0000
  H   H93       1.0  0.48693775590874094  0.6765293522502924  0.10584604011036512  1.0000
  H   H94       1.0  0.5130622440206186  0.32347064761946437  0.8941539593948311  1.0000
  H   H95       1.0  0.480420240744502  0.6253167157370234  0.9811940377658152  1.0000
  H   H96       1.0  0.5195797591848575  0.3746832841327334  0.01880596173938116  1.0000
  H   H97       1.0  0.8617148732256373  0.4435909799871184  0.0031216019103216318  1.0000
  H   H98       1.0  0.13828512707419308  0.5564090201618308  0.9968783983711196  1.0000
  H   H99       1.0  0.718558589330179  0.3994198055857677  0.9102519637857707  1.0000
  H   H100      1.0  0.2814414109696513  0.6005801945631817  0.08974803649567065  1.0000
  H   H101      1.0  0.7856773951085553  0.33874913393628  0.0010677171123965844  1.0000
  H   H102      1.0  0.21432260441679668  0.6612508655119028  0.9989322831597284  1.0000
  H   H103      1.0  0.8718888190489684  0.6386003074734099  0.40367724040951103  1.0000
  H   H104      1.0  0.12811118088039114  0.36139969239634695  0.5963227590956853  1.0000
  H   H105      1.0  0.8751441717665551  0.506601659249841  0.36233684566601965  1.0000
  H   H106      1.0  0.12485582853327518  0.4933983408991083  0.6376631546154217  1.0000
  H   H107      1.0  0.7610227431074175  0.5511839725752872  0.3826612673769966  1.0000
  H   H108      1.0  0.2389772564383857  0.4488160275783305  0.6173387328882449  1.0000
  H   H109      1.0  0.3794118863767036  0.7596232873637568  0.5112321003616954  1.0000
  H   H110      1.0  0.6205881139231268  0.2403767127851924  0.488767899919746  1.0000
  H   H111      1.0  0.5656331213223231  0.8663720928806308  0.4960430101483371  1.0000
  H   H112      1.0  0.43436687897750736  0.13362790726831855  0.5039569901331042  1.0000
  H   H113      1.0  0.47475613061761585  0.16367636624375473  0.21748698857451024  1.0000
  H   H114      1.0  0.5252438696822146  0.8363236339051946  0.7825130117069312  1.0000
  H   H115      1.0  0.3994472354451285  0.24923909878906966  0.16324905003161402  1.0000
  H   H116      1.0  0.600552764484231  0.7507609010806872  0.8367509494735822  1.0000
  H   H117      1.0  0.6346906043896715  0.2497991404081754  0.22525298700311455  1.0000
  H   H118      1.0  0.365309395910159  0.750200859740774  0.7747470132783267  1.0000
  H   H119      1.0  0.5487652705926163  0.3073513349617767  0.13834063538703884  1.0000
  H   H120      1.0  0.4512347297072141  0.6926486651871725  0.8616593648944024  1.0000
  H   H121      1.0  0.5996201977874137  0.1817741886971288  0.021148043489739962  1.0000
  H   H122      1.0  0.4003798017583895  0.8182258114564891  0.9788519567755016  1.0000
  H   H123      1.0  0.603713824430883  0.09391974626938525  0.0851201877323753  1.0000
  H   H124      1.0  0.39628617549847656  0.9060802536003716  0.914879811772821  1.0000
  H   H125      1.0  0.39311735806696  0.031176250379232853  0.057729685497502035  1.0000
  H   H126      1.0  0.6068826422328704  0.9688237497697164  0.9422703147839393  1.0000
  H   H127      1.0  0.3013048128683604  0.1110686912293665  0.004438510959281349  1.0000
  H   H128      1.0  0.69869518743147  0.8889313089195828  0.99556148932216  1.0000
  C   C1        1.0  0.24157444256323748  0.5168514243498944  0.379770764726653  1.0000
  C   C2        1.0  0.7584255577365929  0.48314857579905485  0.6202292355547883  1.0000
  C   C3        1.0  0.1504565323167012  0.46623144828064084  0.38590012376584176  1.0000
  C   C4        1.0  0.8495434679831291  0.5337685518683084  0.6140998765155995  1.0000
  C   C5        1.0  0.12789196421061796  0.5370192820303882  0.4561871088415093  1.0000
  C   C6        1.0  0.8721080353351851  0.4629807181232296  0.5438128914237322  1.0000
  C   C7        1.0  0.2074436704004517  0.6301142662332756  0.4942620357745698  1.0000
  C   C8        1.0  0.7925563298993785  0.3698857339156737  0.5057379645068715  1.0000
  C   C9        1.0  0.21728365721774434  0.7255226548499716  0.5715311498105834  1.0000
  C   C10       1.0  0.782716343082086  0.27447734529897766  0.428468850470858  1.0000
  C   C11       1.0  0.14826411881814178  0.7391197829765335  0.6209734632349162  1.0000
  C   C12       1.0  0.8517358811112179  0.2608802168932235  0.3790265362702801  1.0000
  C   C13       1.0  0.1574991237122556  0.830550151389946  0.6980368803765123  1.0000
  C   C14       1.0  0.8425008762171039  0.16944984847981084  0.301963119128684  1.0000
  C   C15       1.0  0.24199629622554686  0.912008678650559  0.7299733710673155  1.0000
  C   C16       1.0  0.7580037040742836  0.08799132149839024  0.27002662921412585  1.0000
  C   C17       1.0  0.3132965240661591  0.9020897739055282  0.6836119965458279  1.0000
  C   C18       1.0  0.6867034762336715  0.09791022624342101  0.3163880037356134  1.0000
  C   C19       1.0  0.29823491065728497  0.8103167447191763  0.6024936905171098  1.0000
  C   C20       1.0  0.7017650896425455  0.189683255429773  0.39750630976433154  1.0000
  C   C21       1.0  0.4079486060460047  0.9686306865900671  0.7002842042047296  1.0000
  C   C22       1.0  0.5920513938833548  0.031369313279689615  0.29971579530046666  1.0000
  C   C23       1.0  0.4425678885373883  0.914963117798691  0.6247927204080487  1.0000
  C   C24       1.0  0.5574321117624421  0.08503688235025816  0.37520727987339275  1.0000
  C   C25       1.0  0.533068628152894  0.96214242323354  0.6218808046529597  1.0000
  C   C26       1.0  0.4669313721469363  0.037857576915409336  0.37811919562848156  1.0000
  C   C27       1.0  0.5924236116168207  0.05930807882247363  0.6990172512964767  1.0000
  C   C28       1.0  0.40757638831253895  0.9406919210472833  0.30098274820871956  1.0000
  C   C29       1.0  0.5594487732871177  0.10960374949428078  0.7752891183847611  1.0000
  C   C30       1.0  0.4405512258882145  0.8903962503801445  0.22471088110423548  1.0000
  C   C31       1.0  0.46623364045634863  0.0650687665198228  0.7749669195592559  1.0000
  C   C32       1.0  0.5337663598434819  0.9349312336291266  0.22503308072218556  1.0000
  C   C33       1.0  0.6838532394093926  0.08543952169614924  0.6797908038357379  1.0000
  C   C34       1.0  0.3161467608904378  0.9145604784528001  0.32020919644570345  1.0000
  C   C35       1.0  0.7726236618855549  0.16772700362548726  0.7307127332389719  1.0000
  C   C36       1.0  0.22737633841427554  0.832272996523462  0.26928726704246936  1.0000
  C   C37       1.0  0.8530968618544147  0.17029092384330524  0.6954527494692692  1.0000
  C   C38       1.0  0.14690313732091748  0.8297090760311201  0.3045472500197275  1.0000
  C   C39       1.0  0.8414005388148803  0.08935091690058088  0.6075204980513136  1.0000
  C   C40       1.0  0.15859946148494994  0.9106490832483684  0.3924795022301277  1.0000
  C   C41       1.0  0.7538965633135689  0.004673258744021837  0.5535586707103916  1.0000
  C   C42       1.0  0.24610343661579073  0.995326741125735  0.44644132879480475  1.0000
  C   C43       1.0  0.675480358333673  0.004106746814083515  0.5921595716645572  1.0000
  C   C44       1.0  0.3245196419661575  0.9958932533348658  0.4078404286168841  1.0000
  C   C45       1.0  0.7460304129171457  0.9216931123775225  0.4647456601721458  1.0000
  C   C46       1.0  0.25396958662865754  0.07830688777609532  0.5352543400930958  1.0000
  C   C47       1.0  0.8158949514612055  0.918371405212892  0.41205102080771955  1.0000
  C   C48       1.0  0.18410504883862502  0.08162859493605742  0.5879489794737217  1.0000
  C   C49       1.0  0.7803485066221625  0.8258262877774304  0.33456673703055967  1.0000
  C   C50       1.0  0.21965149292364053  0.17417371237618737  0.665433263234682  1.0000
  C   C51       1.0  0.6900968214682875  0.7731611066705022  0.3403487055052307  1.0000
  C   C52       1.0  0.30990317770704484  0.22683889320392306  0.6596512939837659  1.0000
  C   C53       1.0  0.636343069015054  0.6742484635618777  0.2792983519203558  1.0000
  C   C54       1.0  0.36365693016027845  0.32575153631254755  0.7207016475686407  1.0000
  C   C55       1.0  0.5439390676571423  0.6247225427131459  0.2845684542812871  1.0000
  C   C56       1.0  0.45606093264268815  0.37527745743580343  0.7154315460001542  1.0000
  C   C57       1.0  0.4657073782828211  0.6778229817936913  0.3099821945520221  1.0000
  C   C58       1.0  0.5342926212425307  0.32217701765449147  0.6900178057201029  1.0000
  C   C59       1.0  0.38187537340471384  0.6286798618331877  0.31844756518932177  1.0000
  C   C60       1.0  0.6181246268951166  0.37132013831576166  0.6815524350921196  1.0000
  C   C61       1.0  0.37287556855946713  0.524170885906619  0.3040415071333843  1.0000
  C   C62       1.0  0.627124431719912  0.4758291135368953  0.6959584931549403  1.0000
  C   C63       1.0  0.44775652494442364  0.47057164244904104  0.27393011455304134  1.0000
  C   C64       1.0  0.5522434753554069  0.5294283576999083  0.7260698857283999  1.0000
  C   C65       1.0  0.5297330728416138  0.5190998997186256  0.2628124899829434  1.0000
  C   C66       1.0  0.47026692745821663  0.48090010043032383  0.737187510298498  1.0000
  C   C67       1.0  0.2903022506521887  0.47052298081162747  0.31756616397933485  1.0000
  C   C68       1.0  0.7096977496271905  0.5294770186318868  0.6824338363089898  1.0000
  C   C69       1.0  0.25950406851740226  0.35788509709357846  0.26592140060880676  1.0000
  C   C70       1.0  0.7404959314119572  0.6421149027761783  0.7340785988963895  1.0000
  C   C71       1.0  0.30518499029979385  0.2958354134998605  0.32461587263568603  1.0000
  C   C72       1.0  0.6948150096295658  0.7041645863698964  0.6753841268695103  1.0000
  C   C73       1.0  0.27329428221418445  0.19054710135000275  0.2746891629460172  1.0000
  C   C74       1.0  0.7267057173316187  0.809452898803615  0.7253108373192244  1.0000
  C   C75       1.0  0.1982139671773904  0.1446802074158003  0.16916485948816942  1.0000
  C   C76       1.0  0.80178603312244  0.8553197927331488  0.8308351407932719  1.0000
  C   C77       1.0  0.15332132636762513  0.20781373437900816  0.11294108242836778  1.0000
  C   C78       1.0  0.8466786735617344  0.7921862654907488  0.8870589170768285  1.0000
  C   C79       1.0  0.1830464333050849  0.3137432061624277  0.15937882767958841  1.0000
  C   C80       1.0  0.8169535669947455  0.6862567939865215  0.8406211726018529  1.0000
  C   C81       1.0  0.38872385644058577  0.3400171714727038  0.43786090364765823  1.0000
  C   C82       1.0  0.6112761434887739  0.6599828283970531  0.5621390958575382  1.0000
  C   C83       1.0  0.16865889993059946  0.03090919084081906  0.11912511876410327  1.0000
  C   C84       1.0  0.83134109999876  0.9690908090289377  0.880874880741093  1.0000
  C   C85       1.0  0.1314443444664624  0.37948588567295083  0.0972682179475191  1.0000
  C   C86       1.0  0.868555655833368  0.6205141144759985  0.9027317823339222  1.0000
  C   C87       1.0  0.07410245515080485  0.8377685904522227  0.7428791967635334  1.0000
  C   C88       1.0  0.9258975443949982  0.16223140970139488  0.25712080350170813  1.0000
  C   C89       1.0  0.954261151884638  0.8180195853593273  0.653680064541959  1.0000
  C   C90       1.0  0.04573884804472155  0.1819804145104296  0.34631993496323726  1.0000
  C   C91       1.0  0.08472987266190236  0.7581961510072276  0.7944998102981508  1.0000
  C   C92       1.0  0.9152701265134299  0.24180384886719775  0.20550018919084578  1.0000
  C   C93       1.0  0.0951986281309714  0.9428283581822853  0.8245397513589261  1.0000
  C   C94       1.0  0.9048013717983882  0.05717164168747156  0.17546024814627012  1.0000
  C   C95       1.0  0.9569897533684173  0.25450768813563973  0.7557945837976608  1.0000
  C   C96       1.0  0.04301024693141298  0.7454923120133096  0.2442054164837804  1.0000
  C   C97       1.0  0.05441699036619578  0.21409068965059638  0.8253484490232224  1.0000
  C   C98       1.0  0.9455830095631638  0.7859093102191606  0.1746515504819738  1.0000
  C   C99       1.0  0.9903499366876007  0.2845208257265988  0.6827846432858781  1.0000
  C   C100      1.0  0.009650063612229734  0.7154791744223504  0.31721535699556325  1.0000
  C   C101      1.0  0.9368342467961499  0.3508482812197712  0.8236189917614515  1.0000
  C   C102      1.0  0.06316575311275839  0.6491517179445507  0.17638100775062815  1.0000
  C   C103      1.0  0.6770170692087587  0.6109855135840248  0.20666587737651845  1.0000
  C   C104      1.0  0.32298293031659314  0.38901448586415793  0.7933341228956063  1.0000
  C   C105      1.0  0.6271903052507706  0.604776401797731  0.10249579163123304  1.0000
  C   C106      1.0  0.37280969504905975  0.39522359835121834  0.8975042086502083  1.0000
  C   C107      1.0  0.6632406757729142  0.5419346736003421  0.03443422370570069  1.0000
  C   C108      1.0  0.33675932377288886  0.4580653265532757  0.9655657765595409  1.0000
  C   C109      1.0  0.7445802064348241  0.48286082395326696  0.06611832052876486  1.0000
  C   C110      1.0  0.25541979274050813  0.5171391759211583  0.9338816789602318  1.0000
  C   C111      1.0  0.7929494533840844  0.4904117067539259  0.1700321194764986  1.0000
  C   C112      1.0  0.20705054691574595  0.5095882933950233  0.8299678808049428  1.0000
  C   C113      1.0  0.761845815235722  0.5543678284437422  0.24138812910652344  1.0000
  C   C114      1.0  0.23815418506410826  0.44563217170520714  0.7586118711749179  1.0000
  C   C115      1.0  0.5373793932453673  0.6648444242969846  0.06390050595104839  1.0000
  C   C116      1.0  0.46262060666354105  0.3351555748673371  0.9360994935610312  1.0000
  C   C117      1.0  0.778982701317176  0.4124983047598283  0.9910480302721374  1.0000
  C   C118      1.0  0.22101729898265432  0.587501695389121  0.008951970009303874  1.0000
  C   C119      1.0  0.820029353166325  0.5629240578726112  0.3531489260146871  1.0000
  C   C120      1.0  0.17997064713350544  0.43707594227633806  0.6468510742667543  1.0000
  C   C121      1.0  0.4524125302081701  0.19252409236052517  0.15414244279883796  1.0000
  C   C122      1.0  0.5475874700916602  0.8074759077884242  0.8458575574826033  1.0000
  C   C123      1.0  0.5580137578694574  0.23587486520539022  0.15261994513915572  1.0000
  C   C124      1.0  0.4419862420599021  0.7641251346643666  0.8473800543660406  1.0000
  C   C125      1.0  0.5609062937671656  0.153893896570427  0.06081098462215528  1.0000
  C   C126      1.0  0.43909370653266483  0.8461061035785222  0.939189015659286  1.0000
  C   C127      1.0  0.3893979888718725  0.10551872022250072  0.04817354283075502  1.0000
  C   C128      1.0  0.610602011427958  0.8944812799264487  0.9518264574506863  1.0000
  N   N1        1.0  0.27382830229829425  0.6175282928545668  0.44789645142734413  1.0000
  N   N2        1.0  0.7261716980015362  0.3824717072943824  0.5521035488540971  1.0000
  N   N3        1.0  0.37518336284721887  0.8199092180454459  0.5672516543435282  1.0000
  N   N4        1.0  0.6248166370821407  0.1800907818243108  0.4327483451616681  1.0000
  N   N5        1.0  0.5841278986453413  0.9313836042022335  0.5580358079775111  1.0000
  N   N6        1.0  0.41587210052999096  0.06861639567219179  0.44196419151148547  1.0000
  N   N7        1.0  0.6714948185717048  0.8359566993908587  0.4213766209237069  1.0000
  N   N8        1.0  0.3285051813576548  0.1640433004788981  0.5786233785814894  1.0000
  O   O1        1.0  0.4448845016982753  0.11257404521943998  0.9875022322702682  1.0000
  O   O2        1.0  0.5551154978475279  0.8874259549341778  0.012497767994973376  1.0000
