data_image0
_chemical_formula_structural       H104C52N32O12
_chemical_formula_sum              "H104 C52 N32 O12"
_cell_length_a       7.506145287198429
_cell_length_b       20.88052679793093
_cell_length_c       10.824111011488673
_cell_angle_alpha    90.0
_cell_angle_beta     98.1009859743909
_cell_angle_gamma    90.0

_space_group_name_H-M_alt    "P 1"
_space_group_IT_number       1

loop_
  _space_group_symop_operation_xyz
  'x, y, z'

loop_
  _atom_site_type_symbol
  _atom_site_label
  _atom_site_symmetry_multiplicity
  _atom_site_fract_x
  _atom_site_fract_y
  _atom_site_fract_z
  _atom_site_occupancy
  H   H1        1.0  0.7384867486923435  0.3088195950419685  0.48526691551055356  1.0000
  H   H2        1.0  0.761513251090483  0.8088195946125988  0.014733084353798432  1.0000
  H   H3        1.0  0.2615132520954996  0.6911804050571224  0.5147330842815238  1.0000
  H   H4        1.0  0.23848674834152514  0.191180405007577  0.9852669162226156  1.0000
  H   H5        1.0  0.6685246233436709  0.38068335664728825  0.4104471045717095  1.0000
  H   H6        1.0  0.8314753764391553  0.8806833566968337  0.0895528952926425  1.0000
  H   H7        1.0  0.331475377444172  0.6193166434518026  0.5895528952203678  1.0000
  H   H8        1.0  0.16852462300305654  0.1193166434022572  0.9104471043609318  1.0000
  H   H9        1.0  0.2158365198280754  0.3008864513237547  0.9613945038407681  1.0000
  H   H10       1.0  0.2841634806191531  0.8008864508943849  0.5386054957405317  1.0000
  H   H11       1.0  0.7841634809597676  0.6991135487753362  0.03860549595130941  1.0000
  H   H12       1.0  0.7158365188230588  0.1991135487257908  0.46139450391304265  1.0000
  H   H13       1.0  0.29423513380346983  0.37452255949667485  0.02399227053746767  1.0000
  H   H14       1.0  0.205764865922738  0.8745225590673051  0.4760077288278996  1.0000
  H   H15       1.0  0.705764865638742  0.6254774406024161  0.9760077291161068  1.0000
  H   H16       1.0  0.7942351335194738  0.12547744055287063  0.5239922708256747  1.0000
  H   H17       1.0  0.40903925253319623  0.1122140424269458  0.16178328711832093  1.0000
  H   H18       1.0  0.09096074719301162  0.6122140424764912  0.33821671224704636  1.0000
  H   H19       1.0  0.5909607482546468  0.8877859571932301  0.8382167126737565  1.0000
  H   H20       1.0  0.9090392522492001  0.38778595762259965  0.6617832874065279  1.0000
  H   H21       1.0  0.5589890108699508  0.1138261181339311  0.30180653676415  1.0000
  H   H22       1.0  0.9410109889026717  0.6138261181834765  0.19819346402304175  1.0000
  H   H23       1.0  0.4410109885620571  0.8861738814862447  0.698193463812264  1.0000
  H   H24       1.0  0.05898901187496757  0.38617388191561436  0.8018065366918752  1.0000
  H   H25       1.0  0.8209173168047621  0.494713526146457  0.5363477126190939  1.0000
  H   H26       1.0  0.6790826823534539  0.9947135257170874  0.9636522873226875  1.0000
  H   H27       1.0  0.17908268263744975  0.5052864739526339  0.4636522870344805  1.0000
  H   H28       1.0  0.32091731708875804  0.005286473903088407  0.03634771233088675  1.0000
  H   H29       1.0  0.9324940763472481  0.4390846911443104  0.48690150559417406  1.0000
  H   H30       1.0  0.5675059234355782  0.939084691193856  0.013098494270177946  1.0000
  H   H31       1.0  0.06750592309496362  0.5609153089547805  0.5130984940594002  1.0000
  H   H32       1.0  0.4324940773522649  0.060915308905235  0.9869015055218995  1.0000
  H   H33       1.0  0.9421010975752265  0.6785248479173387  0.6602986413380357  1.0000
  H   H34       1.0  0.5578989029286204  0.17852484786779327  0.8397013587422486  1.0000
  H   H35       1.0  0.057898903212616516  0.32147515218175216  0.3397013584540417  1.0000
  H   H36       1.0  0.44210109784901863  0.8214751522312976  0.16029864197266835  1.0000
  H   H37       1.0  0.7787888093202018  0.7413476110925468  0.651492862391518  1.0000
  H   H38       1.0  0.721211189838014  0.24134761104300134  0.8485071375502632  1.0000
  H   H39       1.0  0.22121119012201002  0.25865238900654414  0.34850713726205623  1.0000
  H   H40       1.0  0.2787888096041979  0.7586523890560896  0.15149286210331106  1.0000
  H   H41       1.0  0.9585794003683837  0.7453476710914294  0.559440001994514  1.0000
  H   H42       1.0  0.5414205987898321  0.24534767104188396  0.9405599979472672  1.0000
  H   H43       1.0  0.04142059906362428  0.2546523290076615  0.4405599985819  1.0000
  H   H44       1.0  0.45857940065237973  0.7546523285782919  0.05944000170630702  1.0000
  H   H45       1.0  0.5044603051146936  0.5705436282948807  0.4140413669230253  1.0000
  H   H46       1.0  0.9955396946681327  0.07054362824533525  0.08595863294132672  1.0000
  H   H47       1.0  0.4955396943173144  0.42945637180421026  0.5859586336533887  1.0000
  H   H48       1.0  0.004460306119710307  0.9294563718537555  0.9140413668507507  1.0000
  H   H49       1.0  0.6748734307464334  0.5635187777525785  0.31697278308284577  1.0000
  H   H50       1.0  0.825126569036393  0.0635187781819482  0.18302721678150624  1.0000
  H   H51       1.0  0.3251265686855747  0.43648122186759725  0.6830272174935682  1.0000
  H   H52       1.0  0.17487343175145004  0.9364812219171428  0.8169727830105712  1.0000
  H   H53       1.0  0.4058620235597137  0.6642230966784959  0.2972220907848634  1.0000
  H   H54       1.0  0.09413797616649414  0.16422309710786556  0.20277790858050393  1.0000
  H   H55       1.0  0.5941379758824981  0.3357769029416799  0.7027779088687109  1.0000
  H   H56       1.0  0.9058620232757177  0.8357769029912254  0.7972220910730704  1.0000
  H   H57       1.0  0.6031739331517265  0.6643071084477858  0.22417571832276403  1.0000
  H   H58       1.0  0.8968260666310998  0.16430710839824036  0.275824281541588  1.0000
  H   H59       1.0  0.39682606629048534  0.3356928916513051  0.7758242813308104  1.0000
  H   H60       1.0  0.10317393281111202  0.8356928917008506  0.7241757181119863  1.0000
  H   H61       1.0  0.7130756706944716  0.7478037058694926  0.3578505406234506  1.0000
  H   H62       1.0  0.7869243290883547  0.24780370581994718  0.1421494592409014  1.0000
  H   H63       1.0  0.28692432874774015  0.2521962942295983  0.6421494590301237  1.0000
  H   H64       1.0  0.21307567035385716  0.7521962942791437  0.8578505404126728  1.0000
  H   H65       1.0  0.5339290328152899  0.7391344001689326  0.4483380200614238  1.0000
  H   H66       1.0  0.9660709669675364  0.23913440011938714  0.051661979802928214  1.0000
  H   H67       1.0  0.46607096662692193  0.26086559993015834  0.5516619795921505  1.0000
  H   H68       1.0  0.03392903382030662  0.7608655995007887  0.9483380199891491  1.0000
  H   H69       1.0  0.9730050783531172  0.9712133389282835  0.6515455796905099  1.0000
  H   H70       1.0  0.5269949221507297  0.4712133388787382  0.8484544203897745  1.0000
  H   H71       1.0  0.026994921078890774  0.02878666117080732  0.34845442088590417  1.0000
  H   H72       1.0  0.4730050786371132  0.5287866612203528  0.15154557940230284  1.0000
  H   H73       1.0  0.764733966251383  0.963807632573436  0.711255747956582  1.0000
  H   H74       1.0  0.7352660329068328  0.4638076325238906  0.7887442519851993  1.0000
  H   H75       1.0  0.23526603318062486  0.036192367525654794  0.28874425261983194  1.0000
  H   H76       1.0  0.2647339665353791  0.5361923675752003  0.21125574766837504  1.0000
  H   H77       1.0  0.8207840857127346  0.03742278044811735  0.6412379405460366  1.0000
  H   H78       1.0  0.6792159134454812  0.5374227804976628  0.8587620593957447  1.0000
  H   H79       1.0  0.1792159137192733  0.9625772196509734  0.3587620600303775  1.0000
  H   H80       1.0  0.32078408599673064  0.4625772196014281  0.14123794025782951  1.0000
  H   H81       1.0  0.7342338241919611  0.9599238038374659  0.24242035391074482  1.0000
  H   H82       1.0  0.7657661755908651  0.45992380378792047  0.2575796459536072  1.0000
  H   H83       1.0  0.2657661765958818  0.040076196261624994  0.7575796458813325  1.0000
  H   H84       1.0  0.23423382385134672  0.5400761963111704  0.7424203536999672  1.0000
  H   H85       1.0  0.5060432437106797  0.9755212493977126  0.25232326782337433  1.0000
  H   H86       1.0  0.9939567560619429  0.47552124934816714  0.24767673296381737  1.0000
  H   H87       1.0  0.4939567557213284  0.024478750701378293  0.7476767327530396  1.0000
  H   H88       1.0  0.0060432447156963135  0.5244787507509238  0.7523232677510997  1.0000
  H   H89       1.0  0.475608397901374  0.8806617365526502  0.37210454681807115  1.0000
  H   H90       1.0  0.024391601824833836  0.3806617365031047  0.12789545254729617  1.0000
  H   H91       1.0  0.5243916015408379  0.11933826354644075  0.6278954528355031  1.0000
  H   H92       1.0  0.975608397617378  0.6193382635959862  0.8721045471062782  1.0000
  H   H93       1.0  0.6623820266330807  0.8535778987992828  0.3017426772630546  1.0000
  H   H94       1.0  0.8376179731497457  0.35357789874973733  0.19825732260129744  1.0000
  H   H95       1.0  0.33761797414455863  0.14642210082089296  0.6982573234518625  1.0000
  H   H96       1.0  0.16238202629246612  0.6464221008704384  0.8017426770522769  1.0000
  H   H97       1.0  0.6730328867521252  0.8687459993489004  0.5619632267807914  1.0000
  H   H98       1.0  0.8269671137517219  0.3687459992993549  0.9380367732994929  1.0000
  H   H99       1.0  0.326967114025514  0.13125400075019056  0.43803677393412566  1.0000
  H   H100      1.0  0.17303288703612119  0.6312540007997359  0.06196322649258438  1.0000
  H   H101      1.0  0.8690161113023736  0.8743159886085354  0.48621753702336246  1.0000
  H   H102      1.0  0.6309838884702489  0.3743159885589901  0.013782463763829328  1.0000
  H   H103      1.0  0.13098388812963446  0.12568401149055536  0.5137824635530516  1.0000
  H   H104      1.0  0.36901611096175907  0.6256840115401009  0.9862175368125846  1.0000
  C   C1        1.0  0.5707617612329136  0.29922486154032846  0.31605746689725606  1.0000
  C   C2        1.0  0.929238239895544  0.7992248615898739  0.18394253310559905  1.0000
  C   C3        1.0  0.4292382395549294  0.7007751385587625  0.6839425328948213  1.0000
  C   C4        1.0  0.0707617608922991  0.20077513850921702  0.8160574666864784  1.0000
  C   C5        1.0  0.3850286977853693  0.2961328590911183  0.13128120846724442  1.0000
  C   C6        1.0  0.11497130327626585  0.7961328591406637  0.3687187919594656  1.0000
  C   C7        1.0  0.6149713029922699  0.7038671405290574  0.8687187922476727  1.0000
  C   C8        1.0  0.8850286975115772  0.20386714095842715  0.6312812078326118  1.0000
  C   C9        1.0  0.47487846085639146  0.20257699774218083  0.23067237176989702  1.0000
  C   C10       1.0  0.025121538859612515  0.7025769977917262  0.26932762851831  1.0000
  C   C11       1.0  0.5251215385756165  0.7974230023569101  0.769327628806517  1.0000
  C   C12       1.0  0.9748784619282305  0.2974230023073646  0.7306723712737674  1.0000
  C   C13       1.0  0.8653834478806391  0.7131536533587632  0.5984788336688676  1.0000
  C   C14       1.0  0.6346165512775767  0.21315365330921773  0.9015211662729138  1.0000
  C   C15       1.0  0.13461655155136887  0.2868463467403277  0.40152116690754647  1.0000
  C   C16       1.0  0.3653834481646351  0.7868463467898731  0.0984788333806605  1.0000
  C   C17       1.0  0.7519358405561628  0.6148879922546899  0.4873788706194774  1.0000
  C   C18       1.0  0.7480641592266637  0.11488799220514453  0.012621129244874645  1.0000
  C   C19       1.0  0.24806416023168035  0.38511200784440097  0.5126211291725999  1.0000
  C   C20       1.0  0.2519358402053444  0.8851120078939463  0.9873788713315393  1.0000
  C   C21       1.0  0.6139394532321528  0.5964598068107226  0.37801514856095697  1.0000
  C   C22       1.0  0.8860605478963045  0.09645980676117721  0.12198485144189808  1.0000
  C   C23       1.0  0.3860605475556901  0.40354019328836827  0.6219848512311204  1.0000
  C   C24       1.0  0.11393945289153842  0.9035401933379137  0.8780151483501791  1.0000
  C   C25       1.0  0.5526104669916405  0.6599778742826327  0.3140426209894182  1.0000
  C   C26       1.0  0.9473895327911859  0.15997787423308713  0.18595737887493385  1.0000
  C   C27       1.0  0.4473895324505714  0.3400221258164583  0.6859573786641561  1.0000
  C   C28       1.0  0.052610467996657195  0.8400221258660037  0.8140426209171435  1.0000
  C   C29       1.0  0.6350992616510699  0.7128253474656054  0.40406519873080493  1.0000
  C   C30       1.0  0.8649007381317564  0.21282534741605996  0.09593480113354708  1.0000
  C   C31       1.0  0.36490073778093807  0.28717465263348546  0.5959348018456091  1.0000
  C   C32       1.0  0.13509926265608663  0.7871746526830309  0.9040651986585302  1.0000
  C   C33       1.0  0.8303741019927672  0.9851695074110097  0.636686465335212  1.0000
  C   C34       1.0  0.6696258985110798  0.4851695073614642  0.8633135347450724  1.0000
  C   C35       1.0  0.169625898784872  0.014830492209166166  0.3633135353797052  1.0000
  C   C36       1.0  0.33037410093113206  0.5148304922587116  0.13668646490850184  1.0000
  C   C37       1.0  0.6934157318756324  0.9997030277065833  0.41660699153966935  1.0000
  C   C38       1.0  0.8065842679071937  0.4997030276570379  0.08339300832468262  1.0000
  C   C39       1.0  0.30658426756657925  0.0002969723925075711  0.5833930081139049  1.0000
  C   C40       1.0  0.19341573287044542  0.5002969724420531  0.9166069923902345  1.0000
  C   C41       1.0  0.6311534272081762  0.9577062711838075  0.30539006722001844  1.0000
  C   C42       1.0  0.86884657257465  0.45770627161317723  0.19460993264433354  1.0000
  C   C43       1.0  0.3688465722340356  0.042293728436368215  0.6946099324335558  1.0000
  C   C44       1.0  0.13115342685735795  0.5422937284859136  0.8053900679320805  1.0000
  C   C45       1.0  0.6156221098445714  0.8907969798847758  0.36053140317596977  1.0000
  C   C46       1.0  0.884377889938255  0.3907969798352304  0.13946859668838224  1.0000
  C   C47       1.0  0.3843778895976404  0.10920302021431513  0.6394685964776046  1.0000
  C   C48       1.0  0.11562211083938428  0.6092030202638605  0.8605314040265347  1.0000
  C   C49       1.0  0.7330531008439167  0.893713568177272  0.48865666112809697  1.0000
  C   C50       1.0  0.7669468989389094  0.39371356812772657  0.011343338736255006  1.0000
  C   C51       1.0  0.26694689859829507  0.10628643192181884  0.5113433385254773  1.0000
  C   C52       1.0  0.23305310184893346  0.6062864319713643  0.9886566610558224  1.0000
  N   N1        1.0  0.5736363447540034  0.2342676196505117  0.32566747753079267  1.0000
  N   N2        1.0  0.9263636550288228  0.7342676197000572  0.1743325223335594  1.0000
  N   N3        1.0  0.4263636546780046  0.7657323804485793  0.6743325230456214  1.0000
  N   N4        1.0  0.07363634575902014  0.26573238039903374  0.825667477458518  1.0000
  N   N5        1.0  0.6672711503724331  0.33198958661746547  0.40954368630712035  1.0000
  N   N6        1.0  0.8327288494103932  0.831989586667011  0.09045631355723169  1.0000
  N   N7        1.0  0.3327288490697786  0.6680104134816254  0.5904563133464539  1.0000
  N   N8        1.0  0.16727115137744983  0.16801041343207995  0.9095436862348456  1.0000
  N   N9        1.0  0.4805170005885852  0.33260366930436736  0.2203641042850218  1.0000
  N   N10       1.0  0.0194829991274188  0.8326036693539127  0.2796358960031852  1.0000
  N   N11       1.0  0.5194830001992577  0.6673963307947235  0.7796358955070556  1.0000
  N   N12       1.0  0.9805170003045892  0.16739633074517807  0.7203641045732287  1.0000
  N   N13       1.0  0.29417030357250584  0.3258402575683189  0.032154288118197455  1.0000
  N   N14       1.0  0.20582969614349814  0.8258402576178643  0.46784571217000953  1.0000
  N   N15       1.0  0.7058296972051333  0.6741597420518568  0.9678457125967196  1.0000
  N   N16       1.0  0.7941703032987136  0.1741597424812265  0.5321542874835647  1.0000
  N   N17       1.0  0.37528932735997483  0.23105778300948204  0.1323021387866545  1.0000
  N   N18       1.0  0.12471067370166034  0.7310577830590275  0.3676978616400555  1.0000
  N   N19       1.0  0.6247106734278681  0.7689422170896089  0.8676978610054229  1.0000
  N   N20       1.0  0.8752893270759788  0.2689422170400634  0.6323021390748615  1.0000
  N   N21       1.0  0.4736622614746446  0.1379430206849673  0.23529356559992784  1.0000
  N   N22       1.0  0.026337738241359404  0.6379430207345127  0.26470643468827915  1.0000
  N   N23       1.0  0.5263377379573634  0.8620569794141236  0.7647064349764862  1.0000
  N   N24       1.0  0.9736622612008524  0.36205697936457815  0.7352935649652952  1.0000
  N   N25       1.0  0.7561864161061791  0.6787534044114437  0.49937446245845096  1.0000
  N   N26       1.0  0.7438135836766473  0.17875340436189827  0.0006255374059011438  1.0000
  N   N27       1.0  0.2438135833360327  0.32124659568764724  0.5006255371951235  1.0000
  N   N28       1.0  0.25618641575536083  0.8212465957371927  0.9993744631705129  1.0000
  N   N29       1.0  0.7451855790765861  0.9623132138596759  0.5166131498360379  1.0000
  N   N30       1.0  0.7548144200816297  0.4623132138101304  0.9833868501057433  1.0000
  N   N31       1.0  0.25481442035542184  0.0376867857604999  0.483386850740376  1.0000
  N   N32       1.0  0.24518557936058213  0.5376867858100454  0.016613149547830955  1.0000
  O   O1        1.0  0.8216932701613252  0.4473857882228178  0.5240364490493143  1.0000
  O   O2        1.0  0.6783067303425218  0.9473857882723633  0.97596355103097  1.0000
  O   O3        1.0  0.1783067306265178  0.552614211876273  0.47596355074276303  1.0000
  O   O4        1.0  0.32169326909969  0.0526142118267276  0.024036448622604234  1.0000
  O   O5        1.0  0.8488086170033773  0.5765964952183591  0.5577523861233311  1.0000
  O   O6        1.0  0.6511913835106736  0.07659649516881363  0.9422476130341136  1.0000
  O   O7        1.0  0.15119138378446567  0.42340350488073175  0.44224761366874626  1.0000
  O   O8        1.0  0.34880861593153833  0.9234035049302772  0.05775238661946071  1.0000
  O   O9        1.0  0.7020940982891711  0.0596685865283561  0.41590530545714044  1.0000
  O   O10       1.0  0.7979059014834512  0.5596685865779015  0.08409469533005129  1.0000
  O   O11       1.0  0.2979059011428368  0.9403314135707347  0.5840946951192736  1.0000
  O   O12       1.0  0.2020940992941879  0.4403314135211893  0.9159053053848657  1.0000
