data_image0
_chemical_formula_structural       H72C32N12O4F16P4Br8
_chemical_formula_sum              "H72 C32 N12 O4 F16 P4 Br8"
_cell_length_a       6.848072502327758
_cell_length_b       16.197644493770557
_cell_length_c       14.44881660602946
_cell_angle_alpha    90.0
_cell_angle_beta     103.27888905148056
_cell_angle_gamma    90.0

_space_group_name_H-M_alt    "P 1"
_space_group_IT_number       1

loop_
  _space_group_symop_operation_xyz
  'x, y, z'

loop_
  _atom_site_type_symbol
  _atom_site_label
  _atom_site_symmetry_multiplicity
  _atom_site_fract_x
  _atom_site_fract_y
  _atom_site_fract_z
  _atom_site_occupancy
  H   H1        1.0  0.9931722775165605  0.24984782087027607  0.9772854695334475  1.0000
  H   H2        1.0  0.0068277218348668425  0.7498478210625708  0.5227145308886775  1.0000
  H   H3        1.0  0.006827721557741133  0.7501521788969395  0.022714530665756783  1.0000
  H   H4        1.0  0.9931722772394347  0.2501521787046449  0.4772854693105268  1.0000
  H   H5        1.0  0.13972503244974807  0.32045778150003684  0.9272992870342787  1.0000
  H   H6        1.0  0.8602749680243684  0.8204577816923315  0.5727007126795213  1.0000
  H   H7        1.0  0.8602749680861547  0.6795422182671788  0.07270071316770597  1.0000
  H   H8        1.0  0.13972503217262233  0.17954221869225787  0.4272992868113579  1.0000
  H   H9        1.0  0.2135684626436573  0.2151132105251498  0.943319198145958  1.0000
  H   H10       1.0  0.7864315381693711  0.7151132107174446  0.5566808022789472  1.0000
  H   H11       1.0  0.7864315378922453  0.7848867892420659  0.05668080205602664  1.0000
  H   H12       1.0  0.21356846236653157  0.28488678904977116  0.44331919792303726  1.0000
  H   H13       1.0  0.0026875137846507392  0.10905351396490659  0.8260968576559544  1.0000
  H   H14       1.0  0.9973124866894658  0.6090535141572013  0.6739031420578455  1.0000
  H   H15       1.0  0.9973124867512518  0.8909464864196828  0.1739031425460302  1.0000
  H   H16       1.0  0.002687513846436933  0.3909464862273881  0.326096858144139  1.0000
  H   H17       1.0  0.7732167921010517  0.1469434565572405  0.7532450656531552  1.0000
  H   H18       1.0  0.22678320725037562  0.6469434567495352  0.7467549347689698  1.0000
  H   H19       1.0  0.22678320843485106  0.8530565432099751  0.24675493454882938  1.0000
  H   H20       1.0  0.773216791823926  0.3530565436350542  0.2532450654302345  1.0000
  H   H21       1.0  0.8066716509931993  0.14314662362738753  0.8792105334042813  1.0000
  H   H22       1.0  0.19332834801931603  0.6431466238196822  0.6207894663067383  1.0000
  H   H23       1.0  0.19332834774219035  0.8568533761398281  0.12078946608381752  1.0000
  H   H24       1.0  0.8066716510549855  0.3568533765649072  0.37921053389246606  1.0000
  H   H25       1.0  0.982075747456898  0.46983573586436067  0.8459874541771218  1.0000
  H   H26       1.0  0.017924253017218523  0.9698357354392817  0.6540125455366781  1.0000
  H   H27       1.0  0.01792425274009283  0.5301642645202287  0.15401254531375738  1.0000
  H   H28       1.0  0.9820757475186841  0.030164264327934013  0.34598745466530656  1.0000
  H   H29       1.0  0.8275523867938324  0.3801237409777674  0.8362106565031895  1.0000
  H   H30       1.0  0.17244761368028405  0.8801237405526884  0.6637893432106104  1.0000
  H   H31       1.0  0.1724476137420703  0.619876259406822  0.16378934369879508  1.0000
  H   H32       1.0  0.8275523865167068  0.11987625921452728  0.33621065628026886  1.0000
  H   H33       1.0  0.7872404730655872  0.45348588202593065  0.7419572118413736  1.0000
  H   H34       1.0  0.21275952594692815  0.9534858816008516  0.758042787869646  1.0000
  H   H35       1.0  0.21275952600871437  0.5465141183586588  0.2580427883578306  1.0000
  H   H36       1.0  0.7872404727884614  0.04651411816636407  0.24195721161845296  1.0000
  H   H37       1.0  0.39485762304917976  0.19719778213606504  0.6241474907166383  1.0000
  H   H38       1.0  0.6051423777638486  0.6971977823283597  0.875852509708267  1.0000
  H   H39       1.0  0.605142377486723  0.8028022176311506  0.37585250948534626  1.0000
  H   H40       1.0  0.39485762277205405  0.30280221743885594  0.12414749049371761  1.0000
  H   H41       1.0  0.14098861421218106  0.16612011956644904  0.6138638320629668  1.0000
  H   H42       1.0  0.8590113848003343  0.66612011914137  0.8861361676480527  1.0000
  H   H43       1.0  0.8590113845232086  0.8338798808181404  0.38613616742513207  1.0000
  H   H44       1.0  0.14098861573556845  0.3338798806258456  0.11386383255393184  1.0000
  H   H45       1.0  0.3343617434288281  0.12559849987956018  0.707037983767528  1.0000
  H   H46       1.0  0.6656382570452883  0.6255985000718548  0.7929620159462719  1.0000
  H   H47       1.0  0.6656382571070746  0.8744014998876555  0.2929620164344565  1.0000
  H   H48       1.0  0.33436174315170236  0.3744015003127345  0.20703798354460737  1.0000
  H   H49       1.0  0.03751841587789906  0.4578678364531498  0.6375052670226848  1.0000
  H   H50       1.0  0.9624815845962175  0.9578678366454445  0.8624947326911151  1.0000
  H   H51       1.0  0.9624815846580036  0.5421321633140659  0.36249473317929976  1.0000
  H   H52       1.0  0.037518415600773354  0.042132163121771184  0.13750526679976416  1.0000
  H   H53       1.0  0.2526314412544563  0.3930035748375755  0.6687513958682875  1.0000
  H   H54       1.0  0.7473685592196602  0.8930035750298702  0.8312486038455125  1.0000
  H   H55       1.0  0.7473685589425344  0.6069964249296402  0.3312486036225918  1.0000
  H   H56       1.0  0.2526314413162425  0.10699642473734548  0.16875139635647207  1.0000
  H   H57       1.0  0.22800585474826424  0.4792775506948329  0.742001360329143  1.0000
  H   H58       1.0  0.7719941442642511  0.9792775508871276  0.7579986393818766  1.0000
  H   H59       1.0  0.7719941457876386  0.5207224490723827  0.25799863987284155  1.0000
  H   H60       1.0  0.22800585447113852  0.020722449497461763  0.24200136010622234  1.0000
  H   H61       1.0  0.483581413206157  0.2246053147665493  0.8465127198019329  1.0000
  H   H62       1.0  0.5164185876068714  0.7246053143414702  0.6534872806229726  1.0000
  H   H63       1.0  0.5164185873297457  0.7753946856180401  0.15348728040005175  1.0000
  H   H64       1.0  0.48358141292903123  0.2753946854257454  0.34651271957901214  1.0000
  H   H65       1.0  0.4022575207266653  0.3292495079794498  0.8323564713713374  1.0000
  H   H66       1.0  0.59774247828585  0.8292495075543708  0.6676435283396822  1.0000
  H   H67       1.0  0.5977424798092374  0.6707504924051396  0.16764352883064718  1.0000
  H   H68       1.0  0.40225752044953955  0.17075049221284494  0.33235647114841677  1.0000
  H   H69       1.0  0.5536279250780238  0.2875835904283172  0.7585647166012266  1.0000
  H   H70       1.0  0.4463720742734033  0.7875835906206119  0.7414352838208983  1.0000
  H   H71       1.0  0.4463720739962776  0.7124164093388984  0.24143528359797764  1.0000
  H   H72       1.0  0.5536279248008982  0.21241640976397747  0.25856471637830597  1.0000
  C   C1        1.0  0.4066822547024868  0.5144031728319785  0.01771410550745564  1.0000
  C   C2        1.0  0.5933177455562901  0.014403172639683735  0.48228589447160825  1.0000
  C   C3        1.0  0.5933177458334158  0.48559682755261097  0.9822858946945289  1.0000
  C   C4        1.0  0.40668225351801135  0.9855968271275319  0.517714105727596  1.0000
  C   C5        1.0  0.45975723091647613  0.0433909665241944  0.9820603207689194  1.0000
  C   C6        1.0  0.5402427695576404  0.5433909660991154  0.5179396789448806  1.0000
  C   C7        1.0  0.5402427692805147  0.956609033860395  0.017939678721959937  1.0000
  C   C8        1.0  0.45975723097826227  0.4566090336681003  0.4820603212571039  1.0000
  C   C9        1.0  0.08366547216567902  0.2570810182679013  0.9240603582142538  1.0000
  C   C10       1.0  0.9163345283084375  0.7570810184601959  0.575939641499546  1.0000
  C   C11       1.0  0.9163345280313118  0.7429189814993143  0.0759396412766254  1.0000
  C   C12       1.0  0.08366547222746526  0.24291898130701967  0.4240603587024385  1.0000
  C   C13       1.0  0.8817405189850628  0.1551009932935738  0.821110669754575  1.0000
  C   C14       1.0  0.1182594818279655  0.6551009934858685  0.6788893306703301  1.0000
  C   C15       1.0  0.11825948155083987  0.8448990064736418  0.1788893304474095  1.0000
  C   C16       1.0  0.881740518707937  0.3448990062813472  0.3211106695316544  1.0000
  C   C17       1.0  0.9024483057486903  0.4225668079474368  0.7968340151961721  1.0000
  C   C18       1.0  0.09755169472542632  0.9225668081397315  0.7031659845176278  1.0000
  C   C19       1.0  0.09755169478721257  0.5774331924371526  0.20316598500581248  1.0000
  C   C20       1.0  0.9024483058104763  0.07743319224485792  0.29683401568435674  1.0000
  C   C21       1.0  0.28164846217157086  0.18104186452096724  0.6641606519863666  1.0000
  C   C22       1.0  0.7183515383025456  0.6810418640958882  0.8358393477274333  1.0000
  C   C23       1.0  0.71835153802542  0.8189581358636221  0.33583934750451266  1.0000
  C   C24       1.0  0.28164846223335704  0.31895813567132747  0.16416065247455125  1.0000
  C   C25       1.0  0.14609883833871293  0.4296746871235897  0.69743650842008  1.0000
  C   C26       1.0  0.8539011610127142  0.9296746866985106  0.8025634920020449  1.0000
  C   C27       1.0  0.8539011607355886  0.5703253132609997  0.3025634917791243  1.0000
  C   C28       1.0  0.14609883806158722  0.07032531306870499  0.19743650819715927  1.0000
  C   C29       1.0  0.43155880741107777  0.2740416714113664  0.7942383392442901  1.0000
  C   C30       1.0  0.5684411916014376  0.7740416709862874  0.7057616604667296  1.0000
  C   C31       1.0  0.5684411931248249  0.7259583289732229  0.2057616609576945  1.0000
  C   C32       1.0  0.43155880713395206  0.22595832878092828  0.2942383390213694  1.0000
  N   N1        1.0  0.04556273472403674  0.37768931910765136  0.7548051281630815  1.0000
  N   N2        1.0  0.9544372657500797  0.877689319299946  0.7451948715507184  1.0000
  N   N3        1.0  0.954437265472954  0.6223106806595643  0.24519487132779763  1.0000
  N   N4        1.0  0.045562734785822956  0.12231068108464334  0.25480512865126625  1.0000
  N   N5        1.0  0.25196750691460623  0.25024650414811217  0.7237028627092841  1.0000
  N   N6        1.0  0.7480324938984221  0.7502465037230331  0.7762971377156211  1.0000
  N   N7        1.0  0.7480324936212963  0.7497534962364772  0.2762971374927004  1.0000
  N   N8        1.0  0.2519675066374806  0.24975349604418254  0.2237028624863635  1.0000
  N   N9        1.0  0.9587203605174199  0.23964072130937483  0.8295915617295296  1.0000
  N   N10       1.0  0.041279639956696486  0.7396407215016695  0.6704084379842703  1.0000
  N   N11       1.0  0.04127963967957072  0.7603592784578409  0.17040843776134953  1.0000
  N   N12       1.0  0.9587203605792063  0.2603592788829199  0.3295915622177144  1.0000
  O   O1        1.0  0.8720157465120298  0.24881024840062077  0.6456104222884477  1.0000
  O   O2        1.0  0.12798425283939754  0.7488102479755417  0.8543895781336773  1.0000
  O   O3        1.0  0.1279842525622718  0.7511897519839686  0.35438957791075665  1.0000
  O   O4        1.0  0.872015746234904  0.2511897517916739  0.14561042206552693  1.0000
  F   F1        1.0  0.4633588627972883  0.5283327080855008  0.11338381244015243  1.0000
  F   F2        1.0  0.5366411374614887  0.028332708510579854  0.38661618753891147  1.0000
  F   F3        1.0  0.5366411373997025  0.47166729168171484  0.8866161870507269  1.0000
  F   F4        1.0  0.4633588616128128  0.9716672918740095  0.6133838126602927  1.0000
  F   F5        1.0  0.26811852834058214  0.4522782570525882  0.003285062213026867  1.0000
  F   F6        1.0  0.7318814719181947  0.9522782572448829  0.49671493776603703  1.0000
  F   F7        1.0  0.7318814721953204  0.5477217427146275  0.9967149379889576  1.0000
  F   F8        1.0  0.2681185286177079  0.04772174313970651  0.5032850624359476  1.0000
  F   F9        1.0  0.45814149474797494  0.049663692786279946  0.8873998955359734  1.0000
  F   F10       1.0  0.5418585042645404  0.5496636929785746  0.6126001041750462  1.0000
  F   F11       1.0  0.5418585043263265  0.9503363069809356  0.11260010466323088  1.0000
  F   F12       1.0  0.4581414944708493  0.450336306788641  0.3873998953130527  1.0000
  F   F13       1.0  0.2663003212844796  0.0506057062997799  0.9909189693997739  1.0000
  F   F14       1.0  0.7336996777280357  0.5506057058747009  0.5090810303112456  1.0000
  F   F15       1.0  0.7336996777898218  0.9493942940848095  0.009081030799430321  1.0000
  F   F16       1.0  0.2663003210073539  0.4493942938925148  0.49091896917685324  1.0000
  P   P1        1.0  0.023200664621457423  0.2772826846352453  0.7328273366205856  1.0000
  P   P2        1.0  0.9767993358526591  0.77728268482754  0.7671726630932143  1.0000
  P   P3        1.0  0.9767993355755333  0.7227173151319704  0.2671726628702936  1.0000
  P   P4        1.0  0.023200664683243586  0.22271731555704932  0.2328273371087703  1.0000
  Br  Br1       1.0  0.28714255246291065  0.6135853953222825  0.9520356448637571  1.0000
  Br  Br2       1.0  0.7128574468885166  0.11358539512998779  0.5479643555583678  1.0000
  Br  Br3       1.0  0.7128574480729921  0.38641460444493314  0.04796435533822742  1.0000
  Br  Br4       1.0  0.28714255218578494  0.8864146046372278  0.4520356446408365  1.0000
  Br  Br5       1.0  0.6240859687575243  0.1317648365983598  0.051958882868538114  1.0000
  Br  Br6       1.0  0.3759140315012526  0.6317648361732807  0.44804111711052585  1.0000
  Br  Br7       1.0  0.375914030316777  0.8682351637862296  0.9480411173306661  1.0000
  Br  Br8       1.0  0.6240859690346501  0.3682351635939349  0.5519588830914588  1.0000
