data_image0
_chemical_formula_structural       H44C46N8O6
_chemical_formula_sum              "H44 C46 N8 O6"
_cell_length_a       6.782516106241475
_cell_length_b       10.338915667320258
_cell_length_c       15.083340698447122
_cell_angle_alpha    106.88177298308878
_cell_angle_beta     91.54445332834966
_cell_angle_gamma    97.79479642525774

_space_group_name_H-M_alt    "P 1"
_space_group_IT_number       1

loop_
  _space_group_symop_operation_xyz
  'x, y, z'

loop_
  _atom_site_type_symbol
  _atom_site_label
  _atom_site_symmetry_multiplicity
  _atom_site_fract_x
  _atom_site_fract_y
  _atom_site_fract_z
  _atom_site_occupancy
  H   H1        1.0  0.8965466434326896  0.5630892841577383  0.8889926912133764  1.0000
  H   H2        1.0  0.10345335647857484  0.436910715423673  0.11100730874501513  1.0000
  H   H3        1.0  0.8883912040920795  0.7823579852171039  0.013844919536106027  1.0000
  H   H4        1.0  0.1116087960423763  0.21764201538661754  0.9861550806234799  1.0000
  H   H5        1.0  0.17180542600455034  0.9755322056794014  0.039188214532623826  1.0000
  H   H6        1.0  0.8281945741299054  0.024467794924320267  0.9608117856269621  1.0000
  H   H7        1.0  0.4480349192485453  0.950041209805255  0.9321375309413638  1.0000
  H   H8        1.0  0.5519650806627191  0.04995878977615625  0.06786246901702786  1.0000
  H   H9        1.0  0.45962506253008467  0.21092002297150939  0.9329647476261856  1.0000
  H   H10       1.0  0.5403749373811797  0.7890799766099018  0.06703525233220592  1.0000
  H   H11       1.0  0.5628825393096935  0.3856085231572128  0.9779537025510647  1.0000
  H   H12       1.0  0.43711746060157086  0.6143914764241984  0.022046297407326824  1.0000
  H   H13       1.0  0.6654517132125727  0.277319944579321  0.8814045776260743  1.0000
  H   H14       1.0  0.3345482866986918  0.7226800550020902  0.1185954223323173  1.0000
  H   H15       1.0  0.24384372583312405  0.3576221948100995  0.8806309482751761  1.0000
  H   H16       1.0  0.7561562743013318  0.6423778057936221  0.11936905188440983  1.0000
  H   H17       1.0  0.3442501165906167  0.24607741896611182  0.7841526935131626  1.0000
  H   H18       1.0  0.6557498835438391  0.7539225816376097  0.2158473066464233  1.0000
  H   H19       1.0  0.3310462763027985  0.38399001468785326  0.6905732554743932  1.0000
  H   H20       1.0  0.6689537238316572  0.6160099859158683  0.3094267446851927  1.0000
  H   H21       1.0  0.6503539892780109  0.5682284203123094  0.7184867097670314  1.0000
  H   H22       1.0  0.34964601085644487  0.4317715802914122  0.28151329039255457  1.0000
  H   H23       1.0  0.8537703580925614  0.7243197281075919  0.5032463663490914  1.0000
  H   H24       1.0  0.14622964181870296  0.2756802714738192  0.4967536336093002  1.0000
  H   H25       1.0  0.19212136487517129  0.8498571946214486  0.5629650896073917  1.0000
  H   H26       1.0  0.8078786352592845  0.150142805982273  0.4370349105521942  1.0000
  H   H27       1.0  0.269146449664409  0.9541582342285476  0.7354759690922592  1.0000
  H   H28       1.0  0.730853550470047  0.04584176637517403  0.2645240310673268  1.0000
  H   H29       1.0  0.0003168010464886877  0.9416585048278904  0.8418256620882769  1.0000
  H   H30       1.0  0.9996831988647757  0.05834149475352072  0.15817433787011465  1.0000
  H   H31       1.0  0.5078641330320608  0.6963812286660679  0.5312086653331102  1.0000
  H   H32       1.0  0.492135867102395  0.3036187719376537  0.4687913348264757  1.0000
  H   H33       1.0  0.006817955772953639  0.529884825101246  0.3854901372030121  1.0000
  H   H34       1.0  0.9931820443615021  0.47011517550247556  0.6145098629565738  1.0000
  H   H35       1.0  0.2030276885830229  0.5448782243239121  0.4646292271922284  1.0000
  H   H36       1.0  0.7969723113282414  0.45512177525749903  0.5353707727661633  1.0000
  H   H37       1.0  0.6624841526661815  0.8933930670955411  0.4549768685504163  1.0000
  H   H38       1.0  0.3375158472450827  0.10660693248586996  0.5450231314079753  1.0000
  H   H39       1.0  0.5099885333784759  0.013304255603982067  0.3540505536907892  1.0000
  H   H40       1.0  0.49001146653278843  0.9866957439774292  0.6459494462676024  1.0000
  H   H41       1.0  0.17293968117543493  0.9080368591982307  0.2716262924056461  1.0000
  H   H42       1.0  0.8270603187358295  0.09196314038318047  0.7283737075527454  1.0000
  H   H43       1.0  0.0034466646969387284  0.6920586488827891  0.2950624437554003  1.0000
  H   H44       1.0  0.9965533352143258  0.307941350698622  0.7049375562029914  1.0000
  C   C1        1.0  0.42693318298792976  0.6023694277631347  0.630276515213635  1.0000
  C   C2        1.0  0.5730668169233346  0.3976305718182765  0.3697234847447565  1.0000
  C   C3        1.0  0.7384781431649168  0.7598112529530072  0.6379130662333555  1.0000
  C   C4        1.0  0.2615218567463476  0.240188746628404  0.3620869337250359  1.0000
  C   C5        1.0  0.77818659424492  0.8233242746923751  0.7350906693115247  1.0000
  C   C6        1.0  0.2218134056589085  0.17667572488131592  0.2649093299822809  1.0000
  C   C7        1.0  0.4976826284916629  0.728568198345927  0.7944348858911572  1.0000
  C   C8        1.0  0.5023173714196014  0.27143180123548427  0.20556511406723446  1.0000
  C   C9        1.0  0.4957790407052388  0.5903054143209073  0.7239065274349705  1.0000
  C   C10       1.0  0.504220959429217  0.4096945862828143  0.27609347272461554  1.0000
  C   C11       1.0  0.36927993626528527  0.47636163882492044  0.7504594550057972  1.0000
  C   C12       1.0  0.6307200638691705  0.5236383617788011  0.24954054515378868  1.0000
  C   C13       1.0  0.178846670919797  0.6345125901610397  0.8452056723588919  1.0000
  C   C14       1.0  0.8211533289914674  0.3654874094203716  0.15479432759949976  1.0000
  C   C15       1.0  0.33498936282791697  0.7436318177001383  0.8560951705125703  1.0000
  C   C16       1.0  0.6650106370833474  0.25636818188127286  0.14390482944582128  1.0000
  C   C17       1.0  0.3269612985703838  0.8665481489637972  0.9258100993754134  1.0000
  C   C18       1.0  0.6730387013408806  0.13345185061761414  0.07418990058297824  1.0000
  C   C19       1.0  0.17070968941916026  0.8805582099078695  0.9836298811204941  1.0000
  C   C20       1.0  0.8292903104846682  0.11944178966582192  0.016370118173311594  1.0000
  C   C21       1.0  0.01401561930149288  0.771639029422473  0.9700572202186154  1.0000
  C   C22       1.0  0.9859843808329628  0.22836097118124862  0.029942779940970488  1.0000
  C   C23       1.0  0.016731536313255274  0.6489795870497694  0.9008092017906868  1.0000
  C   C24       1.0  0.9832684638137648  0.3510204135462321  0.0991907977043132  1.0000
  C   C25       1.0  0.38298483003934863  0.3332539655025828  0.8477560170084255  1.0000
  C   C26       1.0  0.6170151700951072  0.6667460351011387  0.15224398315116047  1.0000
  C   C27       1.0  0.5265593471674465  0.30081234734566586  0.9136741696800887  1.0000
  C   C28       1.0  0.47344065296700943  0.6991876532580557  0.08632583047949727  1.0000
  C   C29       1.0  0.9712410850656722  0.8943221881694534  0.7672767408309867  1.0000
  C   C30       1.0  0.02875891506878355  0.10567781243426806  0.23272325932859922  1.0000
  C   C31       1.0  0.12037950314361003  0.901796850409989  0.7072232850784331  1.0000
  C   C32       1.0  0.8796204969908458  0.09820315019373248  0.2927767150811528  1.0000
  C   C33       1.0  0.07765997693878823  0.8431306223929045  0.6113036029249932  1.0000
  C   C34       1.0  0.9223400229724761  0.1568693771885068  0.3886963970333984  1.0000
  C   C35       1.0  0.8883653473601749  0.7738211754569527  0.577390656776788  1.0000
  C   C36       1.0  0.111634652766845  0.22617882513904883  0.422609342718212  1.0000
  C   C37       1.0  0.2411679235323314  0.680962352838813  0.389789093429054  1.0000
  C   C38       1.0  0.7588320766021243  0.31903764776490845  0.610210906730532  1.0000
  C   C39       1.0  0.14802909738442743  0.741261435324859  0.32998517574105374  1.0000
  C   C40       1.0  0.8519709027500284  0.25873856527886263  0.6700148244185323  1.0000
  C   C41       1.0  0.24437248058740435  0.8598671042664714  0.31659200529227743  1.0000
  C   C42       1.0  0.7556275193238601  0.14013289531493983  0.6834079946661141  1.0000
  C   C43       1.0  0.4330135772118935  0.918335962245905  0.3616105831096863  1.0000
  C   C44       1.0  0.5669864229225623  0.08166403835781642  0.6383894170498996  1.0000
  C   C45       1.0  0.5159842707571448  0.8523962951139554  0.4181119269768196  1.0000
  C   C46       1.0  0.484015729377311  0.14760370548976626  0.5818880731827664  1.0000
  N   N1        1.0  0.5505765475817956  0.6896868527292919  0.597794462571002  1.0000
  N   N2        1.0  0.4494234523220328  0.3103131468443993  0.4022055367228035  1.0000
  N   N3        1.0  0.6348915910601766  0.8309006309736799  0.7995670154089122  1.0000
  N   N4        1.0  0.36510840907427927  0.16909936963004168  0.20043298475067392  1.0000
  N   N5        1.0  0.424569356996577  0.7370540226916305  0.4327040097761969  1.0000
  N   N6        1.0  0.5754306429146874  0.26294597688978066  0.5672959901821947  1.0000
  N   N7        1.0  0.15431158026113956  0.5637358401498924  0.4052046032899132  1.0000
  N   N8        1.0  0.8456884196501249  0.43626415943151886  0.5947953966684784  1.0000
  O   O1        1.0  0.2676749335794838  0.5376654076246313  0.5866371050948979  1.0000
  O   O2        1.0  0.7323250663317806  0.46233459195677995  0.4133628948634937  1.0000
  O   O3        1.0  0.17646482630432003  0.5113059826268112  0.7789011658426503  1.0000
  O   O4        1.0  0.8235351736069445  0.48869401695460013  0.2210988341157413  1.0000
  O   O5        1.0  0.47722038532620265  0.4497583320277726  0.8220261204522488  1.0000
  O   O6        1.0  0.5227796145850617  0.5502416675536387  0.17797387950614288  1.0000
