data_image0
_chemical_formula_structural       H112C96N8O32S8
_chemical_formula_sum              "H112 C96 N8 O32 S8"
_cell_length_a       14.234250986820976
_cell_length_b       11.0977083838653
_cell_length_c       16.472490091167266
_cell_angle_alpha    90.0
_cell_angle_beta     106.92514536812267
_cell_angle_gamma    90.0

_space_group_name_H-M_alt    "P 1"
_space_group_IT_number       1

loop_
  _space_group_symop_operation_xyz
  'x, y, z'

loop_
  _atom_site_type_symbol
  _atom_site_label
  _atom_site_symmetry_multiplicity
  _atom_site_fract_x
  _atom_site_fract_y
  _atom_site_fract_z
  _atom_site_occupancy
  H   H1        1.0  0.0760314872577641  0.5126882427611877  0.19090022504491772  1.0000
  H   H2        1.0  0.92396851269766  0.012688242935336182  0.3090997750899986  1.0000
  H   H3        1.0  0.9239685132402721  0.4873117568905153  0.8090997751742021  1.0000
  H   H4        1.0  0.07603148706605847  0.9873117567163667  0.6909002249398885  1.0000
  H   H5        1.0  0.12862407659656172  0.32559214073901344  0.934541752093864  1.0000
  H   H6        1.0  0.8713759229754511  0.825592141465952  0.5654582478309935  1.0000
  H   H7        1.0  0.8713759231671567  0.6744078589126895  0.06545824793602288  1.0000
  H   H8        1.0  0.12862407678826737  0.174407859086838  0.4345417521988935  1.0000
  H   H9        1.0  0.058469510110008005  0.45768314991810205  0.9362626245630437  1.0000
  H   H10       1.0  0.9415304901963227  0.9576831506450406  0.5637373755510465  1.0000
  H   H11       1.0  0.9415304896537104  0.5423168497336008  0.06373737546684323  1.0000
  H   H12       1.0  0.058469510301713636  0.0423168499077494  0.4362626246680731  1.0000
  H   H13       1.0  0.011417592950565738  0.31222009807336243  0.9554160103653422  1.0000
  H   H14       1.0  0.9885824066268954  0.8122200978992139  0.5445839889538298  1.0000
  H   H15       1.0  0.9885824068186011  0.6877799015783406  0.04458398905885926  1.0000
  H   H16       1.0  0.011417593142271379  0.18777990175248904  0.4554160104703716  1.0000
  H   H17       1.0  0.2923949393558288  0.29268956956216824  0.20534550339147312  1.0000
  H   H18       1.0  0.7076050605995955  0.7926895693880198  0.2946544967434432  1.0000
  H   H19       1.0  0.7076050604078896  0.7073104309906216  0.7946544966384139  1.0000
  H   H20       1.0  0.2923949398984409  0.20731043026368326  0.7053455034756766  1.0000
  H   H21       1.0  0.16960585249444546  0.3045187324360873  0.21122963204319023  1.0000
  H   H22       1.0  0.8303941474609786  0.8045187322619388  0.2887703680917261  1.0000
  H   H23       1.0  0.830394147269273  0.6954812672156157  0.7887703679866968  1.0000
  H   H24       1.0  0.16960585303705764  0.19548126738976415  0.7112296321273937  1.0000
  H   H25       1.0  0.2678066069865546  0.36779936441061406  0.2929368785342561  1.0000
  H   H26       1.0  0.7321933929688695  0.8677993642364656  0.20706312160066026  1.0000
  H   H27       1.0  0.7321933935114818  0.6322006361421758  0.7070631216848636  1.0000
  H   H28       1.0  0.26780660679484897  0.1322006354152374  0.7929368784292267  1.0000
  H   H29       1.0  0.5214559964067504  0.6997641622382587  0.31078940551240547  1.0000
  H   H30       1.0  0.47854400354867366  0.19976416241240713  0.18921059462251089  1.0000
  H   H31       1.0  0.478544003356968  0.30023583831453127  0.6892105945174816  1.0000
  H   H32       1.0  0.5214559969493626  0.8002358381403827  0.8107894055966088  1.0000
  H   H33       1.0  0.6181552029344599  0.6860949546187334  0.4609634089015101  1.0000
  H   H34       1.0  0.3818447970209643  0.18609495479288196  0.0390365912334062  1.0000
  H   H35       1.0  0.38184479682925865  0.3139050450329695  0.5390365911283769  1.0000
  H   H36       1.0  0.6181552027427543  0.813905045759908  0.9609634087964808  1.0000
  H   H37       1.0  0.587897814385567  0.2993621471285116  0.4510917410550904  1.0000
  H   H38       1.0  0.4121021855698571  0.7993621478554499  0.04890825907982587  1.0000
  H   H39       1.0  0.41210218537815146  0.7006378525231914  0.5489082589747966  1.0000
  H   H40       1.0  0.5878978141938614  0.2006378526973399  0.9510917409500611  1.0000
  H   H41       1.0  0.4903586299942534  0.31181221026054323  0.30157759487564645  1.0000
  H   H42       1.0  0.509641369966619  0.8118122100863947  0.19842240465358432  1.0000
  H   H43       1.0  0.5096413705092311  0.6881877893911598  0.6984224047377877  1.0000
  H   H44       1.0  0.4903586297970995  0.18818778956530824  0.8015775953763025  1.0000
  H   H45       1.0  0.6141321525262255  0.488060967422312  0.5998638259870657  1.0000
  H   H46       1.0  0.38586784704578736  0.9880609672481634  0.900136173937792  1.0000
  H   H47       1.0  0.385867847237493  0.511939033130478  0.40013617404282137  1.0000
  H   H48       1.0  0.6141321527179312  0.01193903330462645  0.09986382609209497  1.0000
  H   H49       1.0  0.7163902020646475  0.5590139202990342  0.5788881537214394  1.0000
  H   H50       1.0  0.2836097975073654  0.059013920473182734  0.9211118462034182  1.0000
  H   H51       1.0  0.2836097977045193  0.44098608025375574  0.4211118457027621  1.0000
  H   H52       1.0  0.7163902022563531  0.9409860800796072  0.07888815382646874  1.0000
  H   H53       1.0  0.7054944168349291  0.39952664700094687  0.5745889017915132  1.0000
  H   H54       1.0  0.2945055834714015  0.8995266468267983  0.925411098322577  1.0000
  H   H55       1.0  0.29450558366310714  0.6004733526507561  0.4254110984276065  1.0000
  H   H56       1.0  0.705494416292317  0.1004733528249046  0.07458890170730988  1.0000
  H   H57       1.0  0.01833269008636369  0.500278246459588  0.3203999987139398  1.0000
  H   H58       1.0  0.9816673098745087  0.00027824663373651325  0.17960000081529098  1.0000
  H   H59       1.0  0.9816673104171207  0.49972175409320196  0.6796000008994945  1.0000
  H   H60       1.0  0.01833268989465805  0.9997217539190535  0.8203999986089106  1.0000
  H   H61       1.0  0.07619303067977552  0.3864636672410203  0.455763075158552  1.0000
  H   H62       1.0  0.9238069692810968  0.8864636670668719  0.04423692437067878  1.0000
  H   H63       1.0  0.923806969083943  0.6135363324106827  0.5442369248713349  1.0000
  H   H64       1.0  0.07619303122238767  0.11353633258483119  0.9557630752427555  1.0000
  H   H65       1.0  0.207167325819228  0.7087069634515515  0.5852656538379295  1.0000
  H   H66       1.0  0.7928326737527849  0.2087069636256999  0.914734346086928  1.0000
  H   H67       1.0  0.7928326739444904  0.29129303620015157  0.4147343461919574  1.0000
  H   H68       1.0  0.20716732601093363  0.7912930360260031  0.08526565394295889  1.0000
  H   H69       1.0  0.14846126932966278  0.824019280709818  0.45187465320893194  1.0000
  H   H70       1.0  0.8515387313600792  0.3240192808839665  0.048125347115217154  1.0000
  H   H71       1.0  0.8515387311683736  0.17598071984297192  0.5481253470101878  1.0000
  H   H72       1.0  0.1484612691379571  0.6759807196688234  0.9518746531039025  1.0000
  H   H73       1.0  0.25908726191638326  0.48743456963282716  0.6429341743223594  1.0000
  H   H74       1.0  0.7409127383899474  0.9874345694586787  0.8570658257917311  1.0000
  H   H75       1.0  0.740912738581653  0.5125654309199628  0.35706582589676045  1.0000
  H   H76       1.0  0.25908726210808886  0.012565430193024307  0.1429341744273887  1.0000
  H   H77       1.0  0.16974117061978672  0.37307601234318516  0.6018593938768213  1.0000
  H   H78       1.0  0.8302588289522262  0.8730760130701236  0.8981406060480362  1.0000
  H   H79       1.0  0.8302588291439319  0.6269239873085177  0.3981406061530656  1.0000
  H   H80       1.0  0.16974117081149234  0.1269239874826663  0.1018593939818507  1.0000
  H   H81       1.0  0.14199426199521104  0.49867147059350697  0.6573653695163727  1.0000
  H   H82       1.0  0.8580057383111196  0.9986714713204453  0.8426346305977177  1.0000
  H   H83       1.0  0.8580057385028254  0.501328529058196  0.3426346307027471  1.0000
  H   H84       1.0  0.14199426145259889  0.0013285292323445283  0.15736536943216925  1.0000
  H   H85       1.0  0.19114210726281952  0.8313134415581683  0.2785375539473707  1.0000
  H   H86       1.0  0.8088578926926048  0.33131344083122993  0.22146244618754563  1.0000
  H   H87       1.0  0.8088578932352168  0.16868655899462157  0.7214624462717489  1.0000
  H   H88       1.0  0.19114210707111384  0.668686558820473  0.7785375538423412  1.0000
  H   H89       1.0  0.35315882619080885  0.8059299263083394  0.4052723978632607  1.0000
  H   H90       1.0  0.6468411737700636  0.3059299255814009  0.09472760166597012  1.0000
  H   H91       1.0  0.6468411743072275  0.19407007424445055  0.594727602355859  1.0000
  H   H92       1.0  0.3531588259991032  0.6940700740703021  0.9052723977582313  1.0000
  H   H93       1.0  0.38635791589437896  0.9036826246561541  0.49676722652602096  1.0000
  H   H94       1.0  0.6136420840610454  0.40368262483030265  0.0032327736088953096  1.0000
  H   H95       1.0  0.6136420838693396  0.09631737589663575  0.503232773503866  1.0000
  H   H96       1.0  0.38635791570267325  0.5963173757224872  0.9967672264209917  1.0000
  H   H97       1.0  0.4521365998171611  0.9098600765794423  0.42086365643633794  1.0000
  H   H98       1.0  0.5478634001382632  0.4098600767535908  0.07913634369857842  1.0000
  H   H99       1.0  0.5478633999465574  0.09013992307226064  0.579136343593549  1.0000
  H   H100      1.0  0.45213659962545544  0.5901399228981121  0.9208636563313085  1.0000
  H   H101      1.0  0.40101210137630944  0.14603797594432008  0.39094107048379034  1.0000
  H   H102      1.0  0.5989878985791146  0.6460379766712585  0.10905892965112596  1.0000
  H   H103      1.0  0.5989878983874092  0.8539620237073828  0.6090589295460966  1.0000
  H   H104      1.0  0.4010121011846038  0.35396202388153136  0.8909410703787609  1.0000
  H   H105      1.0  0.34867645542163606  0.12957703971485562  0.4754862789127208  1.0000
  H   H106      1.0  0.6513235445337882  0.6295770395407071  0.024513721222195528  1.0000
  H   H107      1.0  0.6513235450764002  0.8704229608379344  0.524513721306399  1.0000
  H   H108      1.0  0.34867645522993046  0.37042296011099585  0.9754862788076915  1.0000
  H   H109      1.0  0.27286116245738196  0.17825415496374708  0.3725271051833968  1.0000
  H   H110      1.0  0.7271388374980422  0.6782541547895985  0.12747289495151945  1.0000
  H   H111      1.0  0.7271388373063365  0.8217458455890428  0.6274728948464902  1.0000
  H   H112      1.0  0.27286116226567636  0.3217458448621044  0.8725271050783675  1.0000
  C   C1        1.0  0.2902939143365661  0.6647419345353688  0.22811058920724792  1.0000
  C   C2        1.0  0.709706086353176  0.16474193380843039  0.2718894111169012  1.0000
  C   C3        1.0  0.7097060861614701  0.3352580660174211  0.7718894110118718  1.0000
  C   C4        1.0  0.29029391414486044  0.8352580658432726  0.7281105891022186  1.0000
  C   C5        1.0  0.18507493568048905  0.6586847002240284  0.2255280975261892  1.0000
  C   C6        1.0  0.8149250642749352  0.1586847003981768  0.2744719026087271  1.0000
  C   C7        1.0  0.8149250640832295  0.3413153003287616  0.7744719025036977  1.0000
  C   C8        1.0  0.18507493548878343  0.841315300154613  0.7255280974211598  1.0000
  C   C9        1.0  0.1489941469188777  0.5485680366994489  0.19861528892313704  1.0000
  C   C10       1.0  0.8510058530365464  0.04856803687359732  0.3013847112117793  1.0000
  C   C11       1.0  0.8510058535791585  0.45143196295225413  0.8013847112959827  1.0000
  C   C12       1.0  0.14899414672717204  0.9514319636791927  0.6986152888181077  1.0000
  C   C13       1.0  0.22643952192466785  0.4715198993341574  0.17748944245192708  1.0000
  C   C14       1.0  0.7735604780307563  0.9715198991600088  0.3225105576829892  1.0000
  C   C15       1.0  0.7735604778390507  0.5284801012186325  0.8225105575779599  1.0000
  C   C16       1.0  0.22643952246728  0.028480101392781045  0.6774894425361305  1.0000
  C   C17       1.0  0.19321299809884285  0.45831038301517285  0.0797928729399227  1.0000
  C   C18       1.0  0.8067870018620296  0.9583103828410243  0.42020712658930814  1.0000
  C   C19       1.0  0.8067870016703239  0.5416896166365301  0.9202071264842788  1.0000
  C   C20       1.0  0.193212997901689  0.041689616810678634  0.5797928734405788  1.0000
  C   C21       1.0  0.07703850606677468  0.3677985462236798  0.9637958615799403  1.0000
  C   C22       1.0  0.922961494239556  0.8677985460495312  0.5362041385341499  1.0000
  C   C23       1.0  0.9229614936969439  0.6322014543291101  0.0362041384499465  1.0000
  C   C24       1.0  0.0770385062584803  0.1322014536021717  0.46379586168496983  1.0000
  C   C25       1.0  0.24039384148091544  0.35066732476570683  0.2245660625007202  1.0000
  C   C26       1.0  0.7596061584745086  0.8506673245915584  0.2754339376341961  1.0000
  C   C27       1.0  0.7596061582828031  0.6493326748859962  0.7754339375291667  1.0000
  C   C28       1.0  0.2403938420235276  0.1493326750601447  0.7245660625849236  1.0000
  C   C29       1.0  0.49887488097168414  0.5065096861053209  0.29721485767661737  1.0000
  C   C30       1.0  0.50112511898374  0.006509686279469358  0.20278514245829896  1.0000
  C   C31       1.0  0.5011251187920344  0.4934903135463821  0.7027851423532696  1.0000
  C   C32       1.0  0.4988748815142962  0.9934903133722336  0.7972148577608208  1.0000
  C   C33       1.0  0.5356895611873016  0.6122894542695956  0.3414314529658919  1.0000
  C   C34       1.0  0.4643104387681226  0.11228945444374415  0.15856854716902447  1.0000
  C   C35       1.0  0.46431043857641696  0.3877105462831943  0.658568547063995  1.0000
  C   C36       1.0  0.535689560995596  0.8877105461090458  0.8414314528608624  1.0000
  C   C37       1.0  0.5894298447398859  0.6037570576049232  0.42656928288526946  1.0000
  C   C38       1.0  0.41057015521553825  0.10375705777907168  0.07343071724964685  1.0000
  C   C39       1.0  0.4105701557581504  0.3962429420467798  0.5734307173338502  1.0000
  C   C40       1.0  0.5894298445481804  0.8962429418726312  0.9265692827802401  1.0000
  C   C41       1.0  0.6078791738911363  0.49201055489423773  0.4681504721641889  1.0000
  C   C42       1.0  0.39212082606428794  0.9920105547200891  0.0318495279707274  1.0000
  C   C43       1.0  0.3921208266069002  0.5079894456585522  0.5318495280549308  1.0000
  C   C44       1.0  0.6078791736994306  0.007989445832700679  0.9681504720591595  1.0000
  C   C45       1.0  0.5719874345524365  0.3876079584370714  0.4214093724958388  1.0000
  C   C46       1.0  0.42801256540298765  0.8876079582629229  0.07859062763907748  1.0000
  C   C47       1.0  0.428012565211282  0.6123920421157184  0.5785906275340481  1.0000
  C   C48       1.0  0.5719874343607309  0.11239204138878005  0.9214093723908094  1.0000
  C   C49       1.0  0.5169370022183086  0.39386352738866975  0.3365523778905733  1.0000
  C   C50       1.0  0.4830629977425637  0.8938635272145213  0.16344762163865753  1.0000
  C   C51       1.0  0.4830629982851759  0.6061364731641202  0.6634476217228611  1.0000
  C   C52       1.0  0.5169370020211548  0.10613647333826867  0.8365523783912294  1.0000
  C   C53       1.0  0.6642802692609673  0.48419880430561707  0.5602369526104626  1.0000
  C   C54       1.0  0.3357197310453634  0.9841988050325555  0.9397630475036278  1.0000
  C   C55       1.0  0.33571973123706905  0.5158011953460858  0.4397630476086571  1.0000
  C   C56       1.0  0.6642802694526729  0.01580119552023439  0.06023695271549196  1.0000
  C   C57       1.0  0.07949028590620134  0.6686152729321945  0.37845311799347175  1.0000
  C   C58       1.0  0.9205097140492228  0.16861527310634303  0.12154688214144455  1.0000
  C   C59       1.0  0.9205097138575171  0.33138472671950847  0.6215468820364152  1.0000
  C   C60       1.0  0.0794902857144957  0.83138472654536  0.8784531178884424  1.0000
  C   C61       1.0  0.05948385513820731  0.5453849867599354  0.37860688839241113  1.0000
  C   C62       1.0  0.9405161448172169  0.04538498693408391  0.1213931117425052  1.0000
  C   C63       1.0  0.9405161453598291  0.4546150137928545  0.6213931118267086  1.0000
  C   C64       1.0  0.05948385494650167  0.954615013618706  0.8786068882873816  1.0000
  C   C65       1.0  0.09250653898667868  0.4822460696282934  0.4549185939265411  1.0000
  C   C66       1.0  0.9074934609741937  0.9822460694541449  0.04508140560268972  1.0000
  C   C67       1.0  0.9074934607824882  0.5177539309244965  0.5450814054976604  1.0000
  C   C68       1.0  0.09250653878952483  0.017753930197558117  0.9549185944271972  1.0000
  C   C69       1.0  0.14560790340230692  0.5389302442561456  0.5303854553017743  1.0000
  C   C70       1.0  0.854392096169706  0.03893024443029408  0.9696145446230833  1.0000
  C   C71       1.0  0.8543920963614116  0.46106975539555745  0.46961454472811254  1.0000
  C   C72       1.0  0.14560790359401257  0.9610697552214088  0.030385455406803704  1.0000
  C   C73       1.0  0.16486623174060433  0.6629646937467502  0.527718283949113  1.0000
  C   C74       1.0  0.8351337678314085  0.16296469301981178  0.9722817159757445  1.0000
  C   C75       1.0  0.8351337680231143  0.3370353068060397  0.47228171608077396  1.0000
  C   C76       1.0  0.16486623193230995  0.8370353066318913  0.027718284054142374  1.0000
  C   C77       1.0  0.1323451457444162  0.7282151441057446  0.45274216883067797  1.0000
  C   C78       1.0  0.8676548542110081  0.22821514427989323  0.047257831304238364  1.0000
  C   C79       1.0  0.8676548540193023  0.2717848564470452  0.547257831199209  1.0000
  C   C80       1.0  0.13234514555271054  0.7717848562728967  0.9527421687256487  1.0000
  C   C81       1.0  0.1808757367074094  0.4703393799380046  0.6119440562096405  1.0000
  C   C82       1.0  0.8191242628646035  0.970339379763856  0.888055943715217  1.0000
  C   C83       1.0  0.8191242630563091  0.5296606197136984  0.38805594382024633  1.0000
  C   C84       1.0  0.180875736899115  0.029660619887846865  0.11194405631466996  1.0000
  C   C85       1.0  0.3787803470287233  0.8958193859602384  0.4287064820258475  1.0000
  C   C86       1.0  0.6212196529267009  0.3958193861343868  0.07129351810906884  1.0000
  C   C87       1.0  0.6212196527349954  0.10418061459255165  0.5712935180040394  1.0000
  C   C88       1.0  0.3787803468370176  0.6041806144184032  0.9287064819208181  1.0000
  C   C89       1.0  0.3100216869670352  0.9910301324902333  0.38071233823003536  1.0000
  C   C90       1.0  0.689978312988389  0.49103013266438184  0.11928766190488092  1.0000
  C   C91       1.0  0.6899783127966832  0.00896986716146967  0.6192876617998516  1.0000
  C   C92       1.0  0.3100216867753296  0.5089698669873212  0.880712338125006  1.0000
  C   C93       1.0  0.33371639897706107  0.11999739891670988  0.40652429995478  1.0000
  C   C94       1.0  0.6662836009783631  0.6199973987425614  0.09347570018013628  1.0000
  C   C95       1.0  0.6662836007866575  0.8800026007349931  0.5934757000751069  1.0000
  C   C96       1.0  0.3337163995196732  0.3800026009091416  0.9065243000389834  1.0000
  N   N1        1.0  0.3129804740520803  0.5509611722082727  0.20177003311636757  1.0000
  N   N2        1.0  0.6870195259033438  0.050961172382421156  0.2982299670185487  1.0000
  N   N3        1.0  0.6870195257116384  0.4490388274434304  0.7982299669135194  1.0000
  N   N4        1.0  0.3129804738603747  0.9490388281703687  0.7017700330113383  1.0000
  N   N5        1.0  0.14417622724648557  0.7594696002513289  0.25086239264675114  1.0000
  N   N6        1.0  0.8558237727089386  0.2594696004254774  0.24913760748816516  1.0000
  N   N7        1.0  0.8558237732515507  0.24053039940037405  0.7491376075723687  1.0000
  N   N8        1.0  0.14417622705477995  0.7405303992262257  0.7508623925417218  1.0000
  O   O1        1.0  0.34620135556832643  0.7504253979234027  0.25029093332362184  1.0000
  O   O2        1.0  0.653798644392546  0.25042539809755127  0.249709066205609  1.0000
  O   O3        1.0  0.6537986441953921  0.24957460262938713  0.7497090667062651  1.0000
  O   O4        1.0  0.34620135537662083  0.7495746024552387  0.7502909332185925  1.0000
  O   O5        1.0  0.2249790583332175  0.5188762220831026  0.03182179304359008  1.0000
  O   O6        1.0  0.7750209416222067  0.018876222257251073  0.46817820709132624  1.0000
  O   O7        1.0  0.7750209421648188  0.48112377846968735  0.9681782071755297  1.0000
  O   O8        1.0  0.22497905814151184  0.9811237782955389  0.5318217929385607  1.0000
  O   O9        1.0  0.12099248623486186  0.376677789270223  0.055134644820927406  1.0000
  O   O10       1.0  0.8790075137205623  0.8766777890960745  0.44486535531398885  1.0000
  O   O11       1.0  0.8790075135288565  0.6233222103814801  0.9448653552089595  1.0000
  O   O12       1.0  0.12099248604315621  0.1233222105556285  0.5551346447158981  1.0000
  O   O13       1.0  0.45713426624699494  0.6143141398373537  0.14977799633952416  1.0000
  O   O14       1.0  0.5428657337084292  0.11431413911041531  0.35022200379539214  1.0000
  O   O15       1.0  0.5428657335167236  0.38568586071543615  0.8502220036903627  1.0000
  O   O16       1.0  0.45713426605528934  0.8856858605412876  0.6497779962344947  1.0000
  O   O17       1.0  0.4120363809840744  0.3973423374875303  0.15275352059978112  1.0000
  O   O18       1.0  0.5879636189713499  0.8973423382144687  0.3472464795351352  1.0000
  O   O19       1.0  0.5879636187796441  0.6026576621641727  0.8472464794301059  1.0000
  O   O20       1.0  0.41203638079236876  0.1026576623383212  0.6527535204947518  1.0000
  O   O21       1.0  0.026139296379761305  0.8750910939522734  0.3031139315067866  1.0000
  O   O22       1.0  0.9738607035756628  0.3750910941264219  0.19688606862812968  1.0000
  O   O23       1.0  0.9738607033839572  0.12490890660051654  0.6968860685231004  1.0000
  O   O24       1.0  0.02613929692237345  0.624908906426368  0.80311393159099  1.0000
  O   O25       1.0  0.9703971464006582  0.685477088320321  0.22039839910069006  1.0000
  O   O26       1.0  0.02960285355476603  0.1854770884944695  0.27960160103422627  1.0000
  O   O27       1.0  0.029602853363060393  0.314522911331382  0.7796016009291968  1.0000
  O   O28       1.0  0.9703971462089523  0.8145229120583204  0.7203983989956606  1.0000
  O   O29       1.0  0.236962295916191  0.9669061096974526  0.32101241163319766  1.0000
  O   O30       1.0  0.7630377047735509  0.4669061098716011  0.17898758869095138  1.0000
  O   O31       1.0  0.7630377045818453  0.03309388995425038  0.678987588585922  1.0000
  O   O32       1.0  0.23696229572448535  0.5330938897801019  0.8210124115281683  1.0000
  S   S1        1.0  0.42462417660509033  0.5152631833715885  0.19130435750806843  1.0000
  S   S2        1.0  0.5753758233503338  0.015263183545736967  0.3086956426268479  1.0000
  S   S3        1.0  0.5753758231586281  0.4847368171812015  0.8086956425218186  1.0000
  S   S4        1.0  0.4246241771477025  0.984736817007053  0.6913043575922718  1.0000
  S   S5        1.0  0.043870396197800275  0.7520354249111346  0.2832163198405331  1.0000
  S   S6        1.0  0.9561296037576239  0.25203542508528304  0.21678368029438316  1.0000
  S   S7        1.0  0.9561296035659184  0.2479645756416554  0.7167836801893538  1.0000
  S   S8        1.0  0.043870396006094645  0.7479645754675069  0.7832163197355037  1.0000
