data_image0
_chemical_formula_structural       H94C86N6O2Br6
_chemical_formula_sum              "H94 C86 N6 O2 Br6"
_cell_length_a       14.047438943332011
_cell_length_b       13.743368649632243
_cell_length_c       9.617384762371826
_cell_angle_alpha    90.0
_cell_angle_beta     90.0
_cell_angle_gamma    90.0

_space_group_name_H-M_alt    "P 1"
_space_group_IT_number       1

loop_
  _space_group_symop_operation_xyz
  'x, y, z'

loop_
  _atom_site_type_symbol
  _atom_site_label
  _atom_site_symmetry_multiplicity
  _atom_site_fract_x
  _atom_site_fract_y
  _atom_site_fract_z
  _atom_site_occupancy
  H   H1        1.0  0.09263312802065438  0.5514304282453191  0.7356755027294037  1.0000
  H   H2        1.0  0.4073668718607471  0.4485695717814398  0.23567550285271305  1.0000
  H   H3        1.0  0.9073668717421486  0.5514304282453191  0.7356755027294037  1.0000
  H   H4        1.0  0.5926331286139295  0.4485695717814398  0.23567550285271305  1.0000
  H   H5        1.0  0.122475045945415  0.7304032581756156  0.7404074284165254  1.0000
  H   H6        1.0  0.37752495464786  0.26959674185114335  0.2404074285398347  1.0000
  H   H7        1.0  0.8775249545292615  0.7304032581756156  0.7404074284165254  1.0000
  H   H8        1.0  0.6224750458268166  0.26959674185114335  0.2404074285398347  1.0000
  H   H9        1.0  0.4178584305423356  0.6637202495651666  0.8285217787246864  1.0000
  H   H10       1.0  0.08214157005093936  0.33627975046159225  0.32852177884799566  1.0000
  H   H11       1.0  0.5821415699323409  0.6637202495651666  0.8285217787246864  1.0000
  H   H12       1.0  0.917858430423737  0.33627975046159225  0.32852177884799566  1.0000
  H   H13       1.0  0.37851028728079306  0.48950130288326493  0.8177153544661263  1.0000
  H   H14       1.0  0.12148971260060838  0.5104986971434939  0.3177153545894357  1.0000
  H   H15       1.0  0.6214897131938834  0.48950130288326493  0.8177153544661263  1.0000
  H   H16       1.0  0.8785102871621945  0.5104986971434939  0.3177153545894357  1.0000
  H   H17       1.0  0.18203876879734243  0.8708580949198553  0.6810403859088914  1.0000
  H   H18       1.0  0.3179612310840591  0.12914190510690354  0.18104038499241698  1.0000
  H   H19       1.0  0.817961231677334  0.8708580949198553  0.6810403859088914  1.0000
  H   H20       1.0  0.6820387686787439  0.12914190510690354  0.18104038499241698  1.0000
  H   H21       1.0  0.2086528086595667  0.043650770440189925  0.7407357869129386  1.0000
  H   H22       1.0  0.2913471912218348  0.9563492295865689  0.24073578703624798  1.0000
  H   H23       1.0  0.7913471911032363  0.043650770440189925  0.7407357869129386  1.0000
  H   H24       1.0  0.7086528085409682  0.9563492295865689  0.24073578703624798  1.0000
  H   H25       1.0  0.3298825151469801  0.08850687709905454  0.9209688931916687  1.0000
  H   H26       1.0  0.1701174847344214  0.9114931229277043  0.42096889331497794  1.0000
  H   H27       1.0  0.6701174846158229  0.08850687709905454  0.9209688931916687  1.0000
  H   H28       1.0  0.8298825150283816  0.9114931229277043  0.42096889331497794  1.0000
  H   H29       1.0  0.42401666125961973  0.9621973758488866  0.03524190602481545  1.0000
  H   H30       1.0  0.07598333862178173  0.0378026241778723  0.5352419059015061  1.0000
  H   H31       1.0  0.5759833385031832  0.9621973758488866  0.03524190602481545  1.0000
  H   H32       1.0  0.9240166611410212  0.0378026241778723  0.5352419059015061  1.0000
  H   H33       1.0  0.400803358727005  0.787025010806898  0.9734139083867985  1.0000
  H   H34       1.0  0.09919664115439647  0.21297498921986083  0.47341390851010773  1.0000
  H   H35       1.0  0.5991966417476715  0.787025010806898  0.9734139083867985  1.0000
  H   H36       1.0  0.9008033586084064  0.21297498921986083  0.47341390851010773  1.0000
  H   H37       1.0  0.13256137061794582  0.4074492289886906  0.7619905755119951  1.0000
  H   H38       1.0  0.3674386299753292  0.5925507710380682  0.2619905756353044  1.0000
  H   H39       1.0  0.8674386298567306  0.4074492289886906  0.7619905755119951  1.0000
  H   H40       1.0  0.6325613704993474  0.5925507710380682  0.2619905756353044  1.0000
  H   H41       1.0  0.2361372320877437  0.358688740415321  0.5733609787116479  1.0000
  H   H42       1.0  0.2638627677936578  0.6413112596114379  0.07336097883495726  1.0000
  H   H43       1.0  0.7638627676750592  0.358688740415321  0.5733609787116479  1.0000
  H   H44       1.0  0.7361372319691452  0.6413112596114379  0.07336097883495726  1.0000
  H   H45       1.0  0.3391640852983769  0.3699182092547623  0.6790145524332225  1.0000
  H   H46       1.0  0.16083591458302454  0.6300817907719966  0.17901455255653187  1.0000
  H   H47       1.0  0.660835914464426  0.3699182092547623  0.6790145524332225  1.0000
  H   H48       1.0  0.8391640851797784  0.6300817907719966  0.17901455255653187  1.0000
  H   H49       1.0  0.17810213734280603  0.2202387090941488  0.7094581508993604  1.0000
  H   H50       1.0  0.321897863250469  0.77976129093261  0.20945815102266968  1.0000
  H   H51       1.0  0.8218978631318705  0.2202387090941488  0.7094581508993604  1.0000
  H   H52       1.0  0.6781021372242075  0.77976129093261  0.20945815102266968  1.0000
  H   H53       1.0  0.3007081067972976  0.19425553065342818  0.6954339412693469  1.0000
  H   H54       1.0  0.1992918937959774  0.8057444693733308  0.19543394139265619  1.0000
  H   H55       1.0  0.6992918936773789  0.19425553065342818  0.6954339412693469  1.0000
  H   H56       1.0  0.8007081066786991  0.8057444693733308  0.19543394139265619  1.0000
  H   H57       1.0  0.32946177653235836  0.2443693497292506  0.9332459896079381  1.0000
  H   H58       1.0  0.17053822334904306  0.7556306502975083  0.43324598973124745  1.0000
  H   H59       1.0  0.6705382232304445  0.2443693497292506  0.9332459896079381  1.0000
  H   H60       1.0  0.8294617764137598  0.7556306502975083  0.43324598973124745  1.0000
  H   H61       1.0  0.20925171427032885  0.20806708914677322  0.9517340010989279  1.0000
  H   H62       1.0  0.2907482856110727  0.7919329108799856  0.4517340012222372  1.0000
  H   H63       1.0  0.7907482854924742  0.20806708914677322  0.9517340010989279  1.0000
  H   H64       1.0  0.7092517148636039  0.7919329108799856  0.4517340012222372  1.0000
  H   H65       1.0  0.1687294936508755  0.37467989481150904  0.9963396044515593  1.0000
  H   H66       1.0  0.33127050623052595  0.6253201052152498  0.4963396045748687  1.0000
  H   H67       1.0  0.831270506823801  0.37467989481150904  0.9963396044515593  1.0000
  H   H68       1.0  0.668729493532277  0.6253201052152498  0.4963396045748687  1.0000
  H   H69       1.0  0.2909982820705103  0.4036755115455958  0.9756954496313425  1.0000
  H   H70       1.0  0.20900171781089116  0.596324488481163  0.47569544871486796  1.0000
  H   H71       1.0  0.7090017176922927  0.4036755115455958  0.9756954496313425  1.0000
  H   H72       1.0  0.7909982819519118  0.596324488481163  0.47569544871486796  1.0000
  H   H73       1.0  0.0  0.6988724958823698  0.9128387765402146  1.0000
  H   H74       1.0  0.4999999998814014  0.3011275041443891  0.41283877666352387  1.0000
  H   H75       1.0  0.0  0.8695852956196294  0.827839169037936  1.0000
  H   H76       1.0  0.4999999998814014  0.13041470440712954  0.3278391691612453  1.0000
  H   H77       1.0  0.0  0.9584544725395603  0.2632305281062357  1.0000
  H   H78       1.0  0.4999999998814014  0.04154552748719861  0.7632305279829263  1.0000
  H   H79       1.0  0.0  0.7849957987038853  0.3260469262151755  1.0000
  H   H80       1.0  0.4999999998814014  0.2150042013228736  0.8260469260918661  1.0000
  H   H81       1.0  0.0  0.0035786641000360624  0.7720758161877648  1.0000
  H   H82       1.0  0.4999999998814014  0.9964213359267229  0.2720758163110741  1.0000
  H   H83       1.0  0.0  0.17505683878052553  0.6982605600094394  1.0000
  H   H84       1.0  0.4999999998814014  0.8249431612462335  0.19826056013274865  1.0000
  H   H85       1.0  0.0  0.3086558367270102  0.8757420752211739  1.0000
  H   H86       1.0  0.4999999998814014  0.691344162572125  0.3757420753444833  1.0000
  H   H87       1.0  0.0  0.26783115725404755  0.12496699463478678  1.0000
  H   H88       1.0  0.4999999998814014  0.7321688427727114  0.6249669945114774  1.0000
  H   H89       1.0  0.0  0.09649176659722983  0.2024879734061647  1.0000
  H   H90       1.0  0.4999999998814014  0.9035082334295291  0.7024879732828554  1.0000
  H   H91       1.0  0.0  0.6343104381641741  0.46090978987792963  1.0000
  H   H92       1.0  0.4999999998814014  0.36568956186258494  0.9609097897546203  1.0000
  H   H93       1.0  0.0  0.6645415271054662  0.14432338564956093  1.0000
  H   H94       1.0  0.4999999998814014  0.33545847292129266  0.6443233855262517  1.0000
  C   C1        1.0  0.16269230279052613  0.5817543153958796  0.7565080164480904  1.0000
  C   C2        1.0  0.3373076978027489  0.4182456846308793  0.25650801657139977  1.0000
  C   C3        1.0  0.8373076976841504  0.5817543153958796  0.7565080164480904  1.0000
  C   C4        1.0  0.6626923026719276  0.4182456846308793  0.25650801657139977  1.0000
  C   C5        1.0  0.18093508220631727  0.6802305576115183  0.7610883229543195  1.0000
  C   C6        1.0  0.3190649183869577  0.3197694424152406  0.26108832307762886  1.0000
  C   C7        1.0  0.8190649182683591  0.6802305576115183  0.7610883229543195  1.0000
  C   C8        1.0  0.6809350820877188  0.3197694424152406  0.26108832307762886  1.0000
  C   C9        1.0  0.2727243909338024  0.713682206309911  0.793779511647332  1.0000
  C   C10       1.0  0.22727560894759902  0.286317793716848  0.29377951177064127  1.0000
  C   C11       1.0  0.7272756088290006  0.713682206309911  0.793779511647332  1.0000
  C   C12       1.0  0.7727243908152039  0.286317793716848  0.29377951177064127  1.0000
  C   C13       1.0  0.3445658037401587  0.6434071162194007  0.8077665708452033  1.0000
  C   C14       1.0  0.15543419614124276  0.3565928838073582  0.30776657096851257  1.0000
  C   C15       1.0  0.6554341960226443  0.6434071162194007  0.8077665708452033  1.0000
  C   C16       1.0  0.8445658036215602  0.3565928838073582  0.30776657096851257  1.0000
  C   C17       1.0  0.32394237400547976  0.5453472180709171  0.8007601276524926  1.0000
  C   C18       1.0  0.1760576258759217  0.4546527819558418  0.30076012777580186  1.0000
  C   C19       1.0  0.6760576257573231  0.5453472180709171  0.8007601276524926  1.0000
  C   C20       1.0  0.8239423738868812  0.4546527819558418  0.30076012777580186  1.0000
  C   C21       1.0  0.29081650018056576  0.817070919530379  0.8215942769509538  1.0000
  C   C22       1.0  0.20918349970083575  0.18292908049637988  0.32159427707426297  1.0000
  C   C23       1.0  0.7091834995822373  0.817070919530379  0.8215942769509538  1.0000
  C   C24       1.0  0.7908165000619672  0.18292908049637988  0.32159427707426297  1.0000
  C   C25       1.0  0.23615061246268307  0.8901999103638523  0.7577348489281804  1.0000
  C   C26       1.0  0.2638493874187184  0.10980008966290661  0.25773484905148974  1.0000
  C   C27       1.0  0.7638493873001199  0.8901999103638523  0.7577348489281804  1.0000
  C   C28       1.0  0.7361506123440846  0.10980008966290661  0.25773484905148974  1.0000
  C   C29       1.0  0.25060507713906327  0.987522599880428  0.7920332645734176  1.0000
  C   C30       1.0  0.2493949227423382  0.01247740014633084  0.2920332646967269  1.0000
  C   C31       1.0  0.7493949233356133  0.987522599880428  0.7920332645734176  1.0000
  C   C32       1.0  0.7506050770204646  0.01247740014633084  0.2920332646967269  1.0000
  C   C33       1.0  0.3182269521179826  0.012954780195375479  0.8920124900861616  1.0000
  C   C34       1.0  0.1817730484752924  0.9870452198313834  0.3920124902094709  1.0000
  C   C35       1.0  0.6817730483566938  0.012954780195375479  0.8920124900861616  1.0000
  C   C36       1.0  0.818226951999384  0.9870452198313834  0.3920124902094709  1.0000
  C   C37       1.0  0.37239088712915164  0.9408064754448676  0.9564913214235767  1.0000
  C   C38       1.0  0.12760911275224984  0.059193524581891276  0.45649132050710234  1.0000
  C   C39       1.0  0.6276091126336514  0.9408064754448676  0.9564913214235767  1.0000
  C   C40       1.0  0.8723908870105531  0.059193524581891276  0.45649132050710234  1.0000
  C   C41       1.0  0.35976135866380715  0.8435321881808224  0.920808645885558  1.0000
  C   C42       1.0  0.1402386412175943  0.15646781184593647  0.4208086460088673  1.0000
  C   C43       1.0  0.6402386418108692  0.8435321881808224  0.920808645885558  1.0000
  C   C44       1.0  0.8597613585452086  0.15646781184593647  0.4208086460088673  1.0000
  C   C45       1.0  0.20912132110703485  0.41123053845690394  0.7845875356388565  1.0000
  C   C46       1.0  0.2908786787743666  0.5887694615698549  0.2845875357621657  1.0000
  C   C47       1.0  0.7908786793676416  0.41123053845690394  0.7845875356388565  1.0000
  C   C48       1.0  0.7091213209884364  0.5887694615698549  0.2845875357621657  1.0000
  C   C49       1.0  0.2635563169155037  0.34923536524128923  0.6792177625624093  1.0000
  C   C50       1.0  0.2364436829658978  0.6507646347854696  0.1792177626857186  1.0000
  C   C51       1.0  0.7364436828472992  0.34923536524128923  0.6792177625624093  1.0000
  C   C52       1.0  0.7635563167969052  0.6507646347854696  0.1792177626857186  1.0000
  C   C53       1.0  0.24941268327513044  0.24674396987020658  0.7376920394989296  1.0000
  C   C54       1.0  0.25058731731814454  0.7532560301565523  0.23769203962223884  1.0000
  C   C55       1.0  0.7505873171995461  0.24674396987020658  0.7376920394989296  1.0000
  C   C56       1.0  0.7494126831565319  0.7532560301565523  0.23769203962223884  1.0000
  C   C57       1.0  0.2565700035813864  0.25887279972623034  0.897131083260535  1.0000
  C   C58       1.0  0.24342999630001513  0.7411272003005285  0.3971310833838444  1.0000
  C   C59       1.0  0.7434299961814166  0.25887279972623034  0.897131083260535  1.0000
  C   C60       1.0  0.7565700034627878  0.7411272003005285  0.3971310833838444  1.0000
  C   C61       1.0  0.23044889556445666  0.36596172730435966  0.9276529108938102  1.0000
  C   C62       1.0  0.26955110502881835  0.6340382727223993  0.42765291101711955  1.0000
  C   C63       1.0  0.7695511049102198  0.36596172730435966  0.9276529108938102  1.0000
  C   C64       1.0  0.7304488954458581  0.6340382727223993  0.42765291101711955  1.0000
  C   C65       1.0  0.0  0.7611793299512437  0.9825230479465216  1.0000
  C   C66       1.0  0.4999999998814014  0.23882067007551516  0.48252304806983093  1.0000
  C   C67       1.0  0.0  0.8569540590992698  0.9399085347367033  1.0000
  C   C68       1.0  0.4999999998814014  0.14304594092748915  0.4399085348600126  1.0000
  C   C69       1.0  0.0  0.9332509828544263  0.03820293552541505  1.0000
  C   C70       1.0  0.4999999998814014  0.0667490171723326  0.5382029354021057  1.0000
  C   C71       1.0  0.0  0.905371626652317  0.17946089946955082  1.0000
  C   C72       1.0  0.4999999998814014  0.09462837337444195  0.6794608993462414  1.0000
  C   C73       1.0  0.0  0.8082275934799459  0.21731990573750895  1.0000
  C   C74       1.0  0.4999999998814014  0.19177240654681307  0.7173199056141996  1.0000
  C   C75       1.0  0.0  0.03602843906928522  0.9936570706196034  1.0000
  C   C76       1.0  0.4999999998814014  0.9639715609574737  0.49365706970312906  1.0000
  C   C77       1.0  0.0  0.060575238955136154  0.8511075986088885  1.0000
  C   C78       1.0  0.4999999998814014  0.9394247610716228  0.3511075987321977  1.0000
  C   C79       1.0  0.0  0.15755206639661384  0.8089650796170575  1.0000
  C   C80       1.0  0.4999999998814014  0.842447933630145  0.3089650787005831  1.0000
  C   C81       1.0  0.0  0.23236956174390733  0.9074538500472427  1.0000
  C   C82       1.0  0.4999999998814014  0.7676304382828515  0.407453850170552  1.0000
  C   C83       1.0  0.0  0.20911903429709025  0.048819992295307466  1.0000
  C   C84       1.0  0.4999999998814014  0.7908809657296686  0.5488199921719982  1.0000
  C   C85       1.0  0.0  0.11229637866414198  0.09159473513491345  1.0000
  C   C86       1.0  0.4999999998814014  0.8877036213626169  0.5915947350116042  1.0000
  N   N1        1.0  0.23303784435054575  0.5160419007016724  0.778920038564885  1.0000
  N   N2        1.0  0.2669621555308557  0.48395809932508643  0.27892003868819426  1.0000
  N   N3        1.0  0.7669621554122572  0.5160419007016724  0.778920038564885  1.0000
  N   N4        1.0  0.7330378442319472  0.48395809932508643  0.27892003868819426  1.0000
  N   N5        1.0  0.0  0.7385008820433256  0.11884943758017119  1.0000
  N   N6        1.0  0.4999999998814014  0.2614991179834333  0.6188494374568618  1.0000
  O   O1        1.0  0.0  0.5858861488238885  0.3856810610835156  1.0000
  O   O2        1.0  0.4999999998814014  0.41411385120287036  0.8856810609602063  1.0000
  Br  Br1       1.0  0.0  0.8245006074477392  0.5757107474438315  1.0000
  Br  Br2       1.0  0.4999999998814014  0.17549939257901964  0.07571074756714083  1.0000
  Br  Br3       1.0  0.0  0.4451130604114075  0.5576160434988598  1.0000
  Br  Br4       1.0  0.4999999998814014  0.5548869396153514  0.05761604362216915  1.0000
  Br  Br5       1.0  0.0  0.5075516736711168  0.026191152399925317  1.0000
  Br  Br6       1.0  0.4999999998814014  0.4924483263556422  0.526191152276616  1.0000
