data_image0
_chemical_formula_structural       H14C26N2O8
_chemical_formula_sum              "H14 C26 N2 O8"
_cell_length_a       4.113978936090198
_cell_length_b       8.65581968665669
_cell_length_c       13.55452974873621
_cell_angle_alpha    83.59728995676943
_cell_angle_beta     87.8746034981931
_cell_angle_gamma    84.80219527138848

_space_group_name_H-M_alt    "P 1"
_space_group_IT_number       1

loop_
  _space_group_symop_operation_xyz
  'x, y, z'

loop_
  _atom_site_type_symbol
  _atom_site_label
  _atom_site_symmetry_multiplicity
  _atom_site_fract_x
  _atom_site_fract_y
  _atom_site_fract_z
  _atom_site_occupancy
  H   H1        1.0  0.6703987398738822  0.556723302863167  0.13896228494189344  1.0000
  H   H2        1.0  0.3296012598716092  0.4432766963931606  0.8610377150644093  1.0000
  H   H3        1.0  0.35908664473348306  0.7593594181933853  0.32665519375214824  1.0000
  H   H4        1.0  0.6409133548237996  0.24064058222357612  0.673344806250099  1.0000
  H   H5        1.0  0.44679176376197227  0.14770967933934814  0.22525731732148313  1.0000
  H   H6        1.0  0.5532082357953104  0.8522903210776134  0.7747426826807641  1.0000
  H   H7        1.0  0.0694360518867753  0.04986700231466947  0.4147448234343501  1.0000
  H   H8        1.0  0.9305639476705075  0.9501329981022917  0.585255176567897  1.0000
  H   H9        1.0  0.37760788129411255  0.10963292959506442  0.5590562382830653  1.0000
  H   H10       1.0  0.6223921184513789  0.8903670696612632  0.44094376172323746  1.0000
  H   H11       1.0  0.9216357177378093  0.4742381549120496  0.7181648396548678  1.0000
  H   H12       1.0  0.07836428181947337  0.5257618455049118  0.2818351603473794  1.0000
  H   H13       1.0  0.9072769223150223  0.2593028516804771  0.2803140070861101  1.0000
  H   H14       1.0  0.09272307724226041  0.7406971487364844  0.7196859929161371  1.0000
  C   C1        1.0  0.6470814192747553  0.7829072274487416  0.15319674878273856  1.0000
  C   C2        1.0  0.3529185802825275  0.21709277296821974  0.8468032512195085  1.0000
  C   C3        1.0  0.5064636140778888  0.9025961204412177  0.21005798214713373  1.0000
  C   C4        1.0  0.493536385479394  0.0974038799757437  0.7899420178551134  1.0000
  C   C5        1.0  0.5599939677156822  0.058162618143715636  0.18160899628039867  1.0000
  C   C6        1.0  0.44000603202980937  0.9418373811126121  0.818391003725904  1.0000
  C   C7        1.0  0.7563371616324505  0.09910168298266923  0.09785473295342687  1.0000
  C   C8        1.0  0.24366283792483226  0.9008983174342922  0.9021452670488204  1.0000
  C   C9        1.0  0.898856413399939  0.98137038813635  0.04219851039489923  1.0000
  C   C10       1.0  0.10114358859060044  0.018629612264715698  0.9578014896096492  1.0000
  C   C11       1.0  0.8237306166663138  0.259619750727627  0.06843456670788163  1.0000
  C   C12       1.0  0.17626938307917778  0.7403802485287005  0.931565433298421  1.0000
  C   C13       1.0  0.8433056925409124  0.8256471438340731  0.06984883663607529  1.0000
  C   C14       1.0  0.15669430720457922  0.17435285542225443  0.9301511633702273  1.0000
  C   C15       1.0  0.1379938531969134  0.16733855872527922  0.41942570557218817  1.0000
  C   C16       1.0  0.8620061463603692  0.8326614416916821  0.580574294430059  1.0000
  C   C17       1.0  0.3104693252667167  0.19897908216003213  0.49844555615007646  1.0000
  C   C18       1.0  0.689530674290566  0.8010209182569292  0.5015544438521707  1.0000
  C   C19       1.0  0.4092285662716049  0.3517713116364959  0.5018682567718702  1.0000
  C   C20       1.0  0.5907714359071435  0.6482286876039357  0.49813174323673376  1.0000
  C   C21       1.0  0.6736167326214437  0.5286082644807926  0.5788240259148564  1.0000
  C   C22       1.0  0.3263832671240478  0.47139173477553503  0.42117597409144625  1.0000
  C   C23       1.0  0.8576374944331582  0.5654074674202993  0.6584909308069242  1.0000
  C   C24       1.0  0.14236250531233338  0.4345925318360283  0.3415090691993784  1.0000
  C   C25       1.0  0.05031755175490333  0.28618832115158965  0.3412461802537713  1.0000
  C   C26       1.0  0.9496824479905881  0.7138116781047379  0.6587538197525314  1.0000
  N   N1        1.0  0.5804563145060235  0.3835833614002351  0.5787858278523333  1.0000
  N   N2        1.0  0.4195436852394679  0.6164166378560927  0.4212141721539694  1.0000
  O   O1        1.0  0.5800437813305985  0.636070214268518  0.18336841060901907  1.0000
  O   O2        1.0  0.41995621841489295  0.36392978498780953  0.8166315893972838  1.0000
  O   O3        1.0  0.31158374075175893  0.8685370900201415  0.2903212807563292  1.0000
  O   O4        1.0  0.6884162612387806  0.13146291038092395  0.7096787192482192  1.0000
  O   O5        1.0  0.7192183640816657  0.3712357465762075  0.11276189080437628  1.0000
  O   O6        1.0  0.2807816354756171  0.628764253840754  0.8872381091978708  1.0000
  O   O7        1.0  0.02192759969825626  0.29091705669073636  0.984745201351996  1.0000
  O   O8        1.0  0.9780723998590265  0.709082943726225  0.01525479865025126  1.0000
