data_image0
_chemical_formula_structural       H124C84N16O12Cl4
_chemical_formula_sum              "H124 C84 N16 O12 Cl4"
_cell_length_a       8.330172129351238
_cell_length_b       24.314641263214753
_cell_length_c       11.046836007657474
_cell_angle_alpha    90.0
_cell_angle_beta     106.1361749307712
_cell_angle_gamma    90.0

_space_group_name_H-M_alt    "P 1"
_space_group_IT_number       1

loop_
  _space_group_symop_operation_xyz
  'x, y, z'

loop_
  _atom_site_type_symbol
  _atom_site_label
  _atom_site_symmetry_multiplicity
  _atom_site_fract_x
  _atom_site_fract_y
  _atom_site_fract_z
  _atom_site_occupancy
  H   H1        1.0  0.6174684829202592  0.8869320709504366  0.2856558020075442  1.0000
  H   H2        1.0  0.882531517668832  0.3869320710165439  0.21434419856864362  1.0000
  H   H3        1.0  0.38253151737728847  0.11306792891734874  0.7143441987738213  1.0000
  H   H4        1.0  0.11746848227998362  0.6130679288512414  0.7856558012703605  1.0000
  H   H5        1.0  0.45927496457128497  0.9660448026241784  0.3293002282912148  1.0000
  H   H6        1.0  0.04072503600314506  0.4660448026902857  0.17069977162773092  1.0000
  H   H7        1.0  0.5407250353775307  0.03395519724360689  0.6706997715477894  1.0000
  H   H8        1.0  0.9592749639456706  0.5339551971774995  0.829300228211273  1.0000
  H   H9        1.0  0.23113366590780027  0.9888552000302502  0.9306108750088048  1.0000
  H   H10       1.0  0.2688663349495162  0.4888552000963576  0.5693891250342641  1.0000
  H   H11       1.0  0.7688663340410153  0.011144799837535099  0.06938912483019918  1.0000
  H   H12       1.0  0.7311336649992994  0.5111447997714277  0.4306108748047401  1.0000
  H   H13       1.0  0.39798435663701687  0.9092519622507059  0.8870211173588081  1.0000
  H   H14       1.0  0.1020156442202996  0.4092519623168134  0.6129788826842609  1.0000
  H   H15       1.0  0.6020156433117987  0.09074803761707927  0.11297888248019604  1.0000
  H   H16       1.0  0.897984355728516  0.5907480379622467  0.38702111715474313  1.0000
  H   H17       1.0  0.10159764300846384  0.19200859430581374  0.2892536517420193  1.0000
  H   H18       1.0  0.39840235636592175  0.6920085942397063  0.2107463481780391  1.0000
  H   H19       1.0  0.8984023569403519  0.8079914059732465  0.7107463480969848  1.0000
  H   H20       1.0  0.6015976435828939  0.3079914060393537  0.789253651660965  1.0000
  H   H21       1.0  0.9422166411027015  0.2787900893382853  0.22216726787580898  1.0000
  H   H22       1.0  0.5577833591376578  0.7787900896834529  0.2778327317580175  1.0000
  H   H23       1.0  0.0577833588461141  0.7212099105294999  0.777832731963195  1.0000
  H   H24       1.0  0.4422166408111579  0.22120991059560732  0.7221672680809866  1.0000
  H   H25       1.0  0.771329370355844  0.2903557824922883  0.999568577108145  1.0000
  H   H26       1.0  0.7286706301674016  0.7903557824261809  0.5004314226498047  1.0000
  H   H27       1.0  0.22867062959297155  0.709644217375497  0.00043142273085897186  1.0000
  H   H28       1.0  0.27132936978141403  0.20964421744160436  0.4995685771891994  1.0000
  H   H29       1.0  0.7451025421858513  0.21184833961720392  0.8492532694777583  1.0000
  H   H30       1.0  0.7548974583373944  0.7118483395510965  0.6507467302801916  1.0000
  H   H31       1.0  0.25489745776296435  0.7881516602505814  0.15074673036124583  1.0000
  H   H32       1.0  0.24510254161142128  0.2881516603166887  0.3492532695588126  1.0000
  H   H33       1.0  0.8998927493577585  0.12469818975232234  0.9179564060216164  1.0000
  H   H34       1.0  0.6001072499654427  0.6246981900974898  0.5820435937374461  1.0000
  H   H35       1.0  0.10010725059105717  0.8753018101154628  0.08204359381738767  1.0000
  H   H36       1.0  0.3998927499833729  0.3753018101815703  0.417956406101558  1.0000
  H   H37       1.0  0.2741934474953965  0.03510456521895431  0.26024963101944504  1.0000
  H   H38       1.0  0.2258065518789891  0.535104565152847  0.23975036890061338  1.0000
  H   H39       1.0  0.7258065524534192  0.9648954346488309  0.739750368819559  1.0000
  H   H40       1.0  0.7741934480698265  0.46489543471493827  0.7602496309383906  1.0000
  H   H41       1.0  0.15198300743416537  0.10326340013901704  0.25011218233456717  1.0000
  H   H42       1.0  0.3480169919402202  0.6032634000729097  0.24988781758549122  1.0000
  H   H43       1.0  0.8480169925146502  0.8967365997287682  0.7498878175044369  1.0000
  H   H44       1.0  0.6519830080085954  0.3967365997948756  0.7501121822535128  1.0000
  H   H45       1.0  0.9704118951163423  0.08016417305522244  0.418217273028952  1.0000
  H   H46       1.0  0.529588105124017  0.580164172989115  0.08178272660487451  1.0000
  H   H47       1.0  0.029588104832473407  0.9198358272238376  0.5817827268100522  1.0000
  H   H48       1.0  0.47041189482479867  0.4198358268786702  0.9182172732341295  1.0000
  H   H49       1.0  0.8332770820178583  0.12587988721966145  0.3153822503986465  1.0000
  H   H50       1.0  0.666722918571233  0.6258798875648289  0.18461775017754128  1.0000
  H   H51       1.0  0.16672291827968946  0.8741201126481238  0.684617750382719  1.0000
  H   H52       1.0  0.3332770813775826  0.3741201127142312  0.8153822496614628  1.0000
  H   H53       1.0  0.7438099827679808  0.02924617526954131  0.26710501618157967  1.0000
  H   H54       1.0  0.7561900178211105  0.529246175203434  0.23289498439460812  1.0000
  H   H55       1.0  0.2561900175295669  0.9707538250095188  0.7328949845997857  1.0000
  H   H56       1.0  0.24380998212770513  0.47075382507562613  0.7671050154443959  1.0000
  H   H57       1.0  0.5867989865639115  0.06484930511335561  0.3157199113861663  1.0000
  H   H58       1.0  0.9132010136764479  0.5648493054585231  0.18428008824766018  1.0000
  H   H59       1.0  0.4132010133849042  0.9351506947544297  0.6842800884528377  1.0000
  H   H60       1.0  0.08679898627236782  0.43515069482053703  0.815719911591344  1.0000
  H   H61       1.0  0.7230631596535361  0.018021313794290623  0.4192398202706374  1.0000
  H   H62       1.0  0.7769368409355554  0.5180213137281833  0.08076018030555045  1.0000
  H   H63       1.0  0.2769368402952796  0.9819786860734947  0.5807601795683668  1.0000
  H   H64       1.0  0.22306315936199247  0.48197868613960204  0.919239820475815  1.0000
  H   H65       1.0  0.5575599627953722  0.11971312340123548  0.4632945463585815  1.0000
  H   H66       1.0  0.9424400374449868  0.619713123746403  0.03670545327524493  1.0000
  H   H67       1.0  0.44244003715344327  0.8802868764665498  0.5367054534804225  1.0000
  H   H68       1.0  0.05755996250382875  0.3802868765326572  0.9632945465637591  1.0000
  H   H69       1.0  0.6439039491853079  0.17673453099640105  0.5579867780305043  1.0000
  H   H70       1.0  0.8560960513379378  0.6767345309302938  0.9420132217274453  1.0000
  H   H71       1.0  0.35609605076350775  0.823265469282659  0.44201322180849967  1.0000
  H   H72       1.0  0.14390394861087788  0.32326546934876643  0.057986778111558744  1.0000
  H   H73       1.0  0.47426665225694253  0.20560183906817964  0.3475274315114082  1.0000
  H   H74       1.0  0.02573334831748757  0.7056018390020723  0.1524725684075375  1.0000
  H   H75       1.0  0.5257333476918731  0.7943981607996056  0.6524725683275959  1.0000
  H   H76       1.0  0.9742666516313282  0.29439816086571297  0.8475274314314666  1.0000
  H   H77       1.0  0.6000371858013653  0.16965649771855185  0.2708133107199232  1.0000
  H   H78       1.0  0.8999628144389938  0.6696564976524445  0.2291866889139033  1.0000
  H   H79       1.0  0.3999628141474502  0.8303435021492334  0.7291866891190809  1.0000
  H   H80       1.0  0.10003718550982178  0.3303435022153408  0.7708133109251007  1.0000
  H   H81       1.0  0.6818587505060328  0.22758397625926452  0.36907349029265774  1.0000
  H   H82       1.0  0.8181412500830586  0.7275839761931572  0.13092651028353006  1.0000
  H   H83       1.0  0.3181412494427829  0.7724160236085207  0.6309265095463463  1.0000
  H   H84       1.0  0.1818587502144892  0.2724160236746281  0.8690734904978353  1.0000
  H   H85       1.0  0.07247073762488056  0.15003324788998676  0.5420025847123795  1.0000
  H   H86       1.0  0.4275292620323915  0.6500332478238794  0.9579974153318023  1.0000
  H   H87       1.0  0.9275292626726671  0.8499667519777986  0.45799741606898586  1.0000
  H   H88       1.0  0.5724707379164241  0.3499667520439059  0.042002584507201915  1.0000
  H   H89       1.0  0.9322156704940076  0.19656222184246616  0.44349491836670796  1.0000
  H   H90       1.0  0.5677843285463072  0.6965622217763587  0.05650508126823132  1.0000
  H   H91       1.0  0.06778432945480807  0.8034377784365939  0.5565050814722962  1.0000
  H   H92       1.0  0.43221567140250844  0.30343777809142647  0.9434949185707727  1.0000
  H   H93       1.0  0.06009282721970097  0.23825360149418356  0.6498481387740432  1.0000
  H   H94       1.0  0.4399071724375711  0.7382536014280763  0.8501518612701386  1.0000
  H   H95       1.0  0.9399071727291146  0.7617463983736018  0.3501518610649609  1.0000
  H   H96       1.0  0.5600928275112445  0.26174639843970904  0.1498481385688656  1.0000
  H   H97       1.0  0.9880708974078665  0.18593368584218498  0.7312664679400057  1.0000
  H   H98       1.0  0.5119291019153348  0.6859336861873524  0.7687335318190569  1.0000
  H   H99       1.0  0.01192910254094922  0.8140663140256003  0.2687335318989984  1.0000
  H   H100      1.0  0.4880708980334808  0.31406631409170765  0.2312664680199473  1.0000
  H   H101      1.0  0.8446325320948683  0.23282005597854913  0.6296682989145359  1.0000
  H   H102      1.0  0.655367467228333  0.7328200563237166  0.8703317008445267  1.0000
  H   H103      1.0  0.15536746785394726  0.7671799438892362  0.37033170092446827  1.0000
  H   H104      1.0  0.3446325327204827  0.26717994395534345  0.12966829899447743  1.0000
  H   H105      1.0  0.8047768203723786  0.11609701617398144  0.6872332931899126  1.0000
  H   H106      1.0  0.6952231789508228  0.616097016107874  0.8127667065691501  1.0000
  H   H107      1.0  0.19522317957643706  0.8839029841050786  0.3127667066490916  1.0000
  H   H108      1.0  0.304776820997993  0.38390298375991116  0.18723329326985408  1.0000
  H   H109      1.0  0.7379544321480574  0.059999961924468666  0.5842037071752711  1.0000
  H   H110      1.0  0.7620455683751882  0.5599999622696361  0.9157962925826787  1.0000
  H   H111      1.0  0.26204556780075816  0.9400000379433167  0.4157962926637329  1.0000
  H   H112      1.0  0.23795443157362742  0.440000038009424  0.08420370725632542  1.0000
  H   H113      1.0  0.9962413106968471  0.03601233966485546  0.7420756246345512  1.0000
  H   H114      1.0  0.5037586901751305  0.536012339598748  0.7579243760657597  1.0000
  H   H115      1.0  0.0037586896007005747  0.9639876602029298  0.2579243761468141  1.0000
  H   H116      1.0  0.496241309773685  0.46398766026903715  0.2420756237732443  1.0000
  H   H117      1.0  0.10500818661874409  0.0929779763364314  0.7073595697964948  1.0000
  H   H118      1.0  0.394991813038528  0.592977976270324  0.7926404302476868  1.0000
  H   H119      1.0  0.8949918133300715  0.9070220235313539  0.2926404300425093  1.0000
  H   H120      1.0  0.6050081869102877  0.4070220235974612  0.20735956959131716  1.0000
  H   H121      1.0  0.04147226091323068  0.03923105423081541  0.594318231440015  1.0000
  H   H122      1.0  0.45852773839530925  0.5392310541647081  0.9056817676618053  1.0000
  H   H123      1.0  0.958527739035585  0.9607689456369699  0.40568176839898906  1.0000
  H   H124      1.0  0.5414722615535064  0.46076894570307725  0.09431823217719877  1.0000
  C   C1        1.0  0.5161503886330316  0.8937072875048024  0.0826882919833071  1.0000
  C   C2        1.0  0.9838496104072831  0.3937072875709098  0.4173117076516321  1.0000
  C   C3        1.0  0.483849611315784  0.10629271236298286  0.917311707855697  1.0000
  C   C4        1.0  0.016150389541532494  0.6062927122968754  0.582688292187372  1.0000
  C   C5        1.0  0.5326730264568875  0.9088786719396648  0.207954553039912  1.0000
  C   C6        1.0  0.9673269741322038  0.4088786720057722  0.29204544753627576  1.0000
  C   C7        1.0  0.4673269738406603  0.09112132792812044  0.7920454477414535  1.0000
  C   C8        1.0  0.032673025816611766  0.5911213282732879  0.7079545523027283  1.0000
  C   C9        1.0  0.44220028911269676  0.9530823280152344  0.23201908579526323  1.0000
  C   C10       1.0  0.05779971061042099  0.45308232767006706  0.26798091506715654  1.0000
  C   C11       1.0  0.5577997111848509  0.04691767226382559  0.7679809149861021  1.0000
  C   C12       1.0  0.9422002896871269  0.5469176721977183  0.7320190857142089  1.0000
  C   C13       1.0  0.332472866848912  0.9825352659487023  0.1321338339604121  1.0000
  C   C14       1.0  0.1675271325254737  0.4825352660148097  0.36786616595964633  1.0000
  C   C15       1.0  0.6675271330999037  0.017464733919082924  0.867866165878592  1.0000
  C   C16       1.0  0.8324728677720741  0.5174647338529755  0.632133834821719  1.0000
  C   C17       1.0  0.3155271486055277  0.9660593432458627  0.0065162938552736395  1.0000
  C   C18       1.0  0.1844728519689023  0.4660593433119702  0.49348370606367203  1.0000
  C   C19       1.0  0.6844728513432878  0.0339406566219225  0.9934837059837305  1.0000
  C   C20       1.0  0.8155271479799133  0.5339406569670899  0.5065162937753321  1.0000
  C   C21       1.0  0.4078763223110797  0.9222043343046773  0.9828980434956424  1.0000
  C   C22       1.0  0.09212367734619241  0.42220433395950985  0.5171019565485394  1.0000
  C   C23       1.0  0.5921236776377361  0.0777956659743828  0.017101956343361768  1.0000
  C   C24       1.0  0.9078763226026232  0.5777956659082755  0.48289804329046465  1.0000
  C   C25       1.0  0.1456737075963928  0.06430782889507727  0.08453287264458081  1.0000
  C   C26       1.0  0.3543262929780372  0.5643078288289699  0.4154671272743648  1.0000
  C   C27       1.0  0.8543262923524229  0.935692170972708  0.9154671271944232  1.0000
  C   C28       1.0  0.6456737069707784  0.43569217103881536  0.5845328725646393  1.0000
  C   C29       1.0  0.009541168539135276  0.15292391525534632  0.10776563758787935  1.0000
  C   C30       1.0  0.4904588308352502  0.652923915189239  0.392234362332179  1.0000
  C   C31       1.0  0.9904588314096805  0.847076084612439  0.8922343622511247  1.0000
  C   C32       1.0  0.5095411691135653  0.34707608467854634  0.607765637506825  1.0000
  C   C33       1.0  0.02115754497946905  0.1967155385194282  0.1931446137298232  1.0000
  C   C34       1.0  0.47884245559496097  0.6967155384533209  0.3068553861891225  1.0000
  C   C35       1.0  0.9788424549693466  0.8032844613483571  0.806855386109181  1.0000
  C   C36       1.0  0.5211575443538546  0.30328446141446447  0.6931446136498816  1.0000
  C   C37       1.0  0.9344151658667011  0.24549898661391073  0.15467291286534524  1.0000
  C   C38       1.0  0.5655848343736581  0.7454989865478034  0.34532708676848123  1.0000
  C   C39       1.0  0.06558483408211462  0.7545010136651493  0.845327086973659  1.0000
  C   C40       1.0  0.4344151655751576  0.25450101331998193  0.6546729130705229  1.0000
  C   C41       1.0  0.8352342136928931  0.25151516585408346  0.030431476127057395  1.0000
  C   C42       1.0  0.6647657853474217  0.7515151657879762  0.46956852350788186  1.0000
  C   C43       1.0  0.1647657862559225  0.7484848344249766  0.9695685237119468  1.0000
  C   C44       1.0  0.3352342146013941  0.24848483407980917  0.5304314763311223  1.0000
  C   C45       1.0  0.8228256267233981  0.2078199100409804  0.9461652085919332  1.0000
  C   C46       1.0  0.6771743737998475  0.707819909974873  0.5538347911660165  1.0000
  C   C47       1.0  0.17717437322541743  0.7921800898268049  0.05383479124707084  1.0000
  C   C48       1.0  0.3228256261489682  0.2921800898929122  0.44616520867298753  1.0000
  C   C49       1.0  0.908668785126954  0.15870600056263381  0.9832516769092643  1.0000
  C   C50       1.0  0.5913312141962471  0.6587060004965264  0.5167483228497982  1.0000
  C   C51       1.0  0.09133121482186157  0.8412939997164264  0.01674832292973983  1.0000
  C   C52       1.0  0.40866878575256843  0.34129399978253366  0.4832516769892058  1.0000
  C   C53       1.0  0.8413658283688681  0.09560403523274752  0.3904868795624707  1.0000
  C   C54       1.0  0.6586341722202232  0.5956040351666401  0.1095131210137171  1.0000
  C   C55       1.0  0.15863417192867968  0.9043959646350378  0.6095131212188947  1.0000
  C   C56       1.0  0.34136582772859236  0.4043959647011451  0.890486878825287  1.0000
  C   C57       1.0  0.7158201665189018  0.049758624727496314  0.3472388608264107  1.0000
  C   C58       1.0  0.7841798337214575  0.5497586246613889  0.15276113880741576  1.0000
  C   C59       1.0  0.2841798334299139  0.950241375140289  0.6527611390125934  1.0000
  C   C60       1.0  0.21582016622735822  0.45024137520639634  0.8472388610315884  1.0000
  C   C61       1.0  0.646750009925374  0.15384400080206775  0.4730612475762933  1.0000
  C   C62       1.0  0.8532499894636729  0.6538440007359604  0.02693875300100729  1.0000
  C   C63       1.0  0.35324999002344165  0.8461559990657175  0.5269387522627108  1.0000
  C   C64       1.0  0.14675001083387482  0.3461559991318249  0.9730612477803581  1.0000
  C   C65       1.0  0.6020541988275456  0.19098880093392825  0.3586493731044151  1.0000
  C   C66       1.0  0.8979458014128135  0.6909888008678209  0.14135062652941136  1.0000
  C   C67       1.0  0.3979458011212699  0.809011198933857  0.641350626734589  1.0000
  C   C68       1.0  0.10205419853600206  0.3090111989999644  0.8586493733095927  1.0000
  C   C69       1.0  0.9543388231265477  0.17216485674962956  0.5300551605900682  1.0000
  C   C70       1.0  0.5456611765453855  0.6721648566835221  0.9699448401113555  1.0000
  C   C71       1.0  0.04566117717099988  0.8278351431181558  0.4699448401912971  1.0000
  C   C72       1.0  0.4543388237521623  0.3278351431842631  0.030055160670009885  1.0000
  C   C73       1.0  0.9588779219327933  0.2085320328238156  0.6420023657528013  1.0000
  C   C74       1.0  0.5411220773904079  0.7085320327577082  0.8579976340062613  1.0000
  C   C75       1.0  0.04112207801602231  0.7914679674552445  0.3579976340862029  1.0000
  C   C76       1.0  0.45887792255840776  0.29146796711007705  0.14200236583274278  1.0000
  C   C77       1.0  0.8366737830762566  0.09081022607314698  0.6150914179555299  1.0000
  C   C78       1.0  0.6633262174469892  0.5908102260070396  0.8849085818024197  1.0000
  C   C79       1.0  0.16332621687255913  0.9091897742059132  0.38490858188347415  1.0000
  C   C80       1.0  0.33667378250182645  0.40918977427202047  0.11509141803658424  1.0000
  C   C81       1.0  0.005226747764750368  0.06360106337820336  0.6658066267010511  1.0000
  C   C82       1.0  0.49477325189252164  0.563601063312096  0.8341933733431306  1.0000
  C   C83       1.0  0.9947732521840652  0.936398936489582  0.334193373137953  1.0000
  C   C84       1.0  0.505226748056294  0.4363989365556893  0.16580662649587344  1.0000
  N   N1        1.0  0.6117092584353953  0.8483621319639706  0.05526119264050777  1.0000
  N   N2        1.0  0.8882907421536961  0.34836213203007793  0.44473880793568  1.0000
  N   N3        1.0  0.38829074186215257  0.15163786790381464  0.9447388081408576  1.0000
  N   N4        1.0  0.11170925779511946  0.6516378678377073  0.555261191903324  1.0000
  N   N5        1.0  0.24979346476685274  0.026643815674142778  0.1645689092534495  1.0000
  N   N6        1.0  0.25020653580757735  0.5266438156080354  0.33543109066549626  1.0000
  N   N7        1.0  0.750206535530695  0.9733561846049172  0.8354310915279158  1.0000
  N   N8        1.0  0.7497934641412384  0.47335618425974985  0.664568909173508  1.0000
  N   N9        1.0  0.09753345316344125  0.10502328421613637  0.1538456261947419  1.0000
  N   N10       1.0  0.40246654621094435  0.6050232845613038  0.3461543737253165  1.0000
  N   N11       1.0  0.9024665467853744  0.8949767156516488  0.8461543736442622  1.0000
  N   N12       1.0  0.5975334537378714  0.3949767157177563  0.6538456261136876  1.0000
  N   N13       1.0  0.8197712250430248  0.12821083832794472  0.5022163048190356  1.0000
  N   N14       1.0  0.680228775828953  0.6282108382618373  0.9977836958812756  1.0000
  N   N15       1.0  0.18022877525452294  0.8717891619511154  0.49778369596232985  1.0000
  N   N16       1.0  0.31977122411986264  0.37178916160594794  0.002216303957728544  1.0000
  O   O1        1.0  0.10436498116381815  0.06147369660194514  0.968286095852813  1.0000
  O   O2        1.0  0.39563501849345395  0.5614736965358378  0.5317139041913688  1.0000
  O   O3        1.0  0.8956350187849975  0.9385263032658401  0.03171390398619112  1.0000
  O   O4        1.0  0.6043649814553617  0.4385263033319475  0.4682860956476353  1.0000
  O   O5        1.0  0.6036201281893229  0.8380904879246303  0.9430344758771645  1.0000
  O   O6        1.0  0.8963798714826106  0.33809048799073754  0.5569655248242594  1.0000
  O   O7        1.0  0.3963798721082249  0.16190951194315506  0.056965524904200926  1.0000
  O   O8        1.0  0.10362012846620511  0.6619095118770476  0.44303447501474474  1.0000
  O   O9        1.0  0.6988400869390912  0.8207288935079092  0.14557349443248044  1.0000
  O   O10       1.0  0.8011599136500002  0.32072889357401674  0.3544265061437074  1.0000
  O   O11       1.0  0.3011599133584566  0.17927110635987592  0.8544265063488851  1.0000
  O   O12       1.0  0.19884008629881547  0.6792711062937686  0.6455734936952967  1.0000
  Cl  Cl1       1.0  0.28308353364831773  0.07150821273396483  0.4380445652091039  1.0000
  Cl  Cl2       1.0  0.21691646727484445  0.5715082130791322  0.06195543565220311  1.0000
  Cl  Cl3       1.0  0.7169164666492301  0.9284917871338204  0.5619554355722616  1.0000
  Cl  Cl4       1.0  0.7830835330227033  0.4284917871999278  0.9380445651291623  1.0000
