data_image0
_chemical_formula_structural       H24C169S2Br4
_chemical_formula_sum              "H24 C169 S2 Br4"
_cell_length_a       10.743649834615491
_cell_length_b       11.116272366208593
_cell_length_c       20.173386315759572
_cell_angle_alpha    98.83940279576348
_cell_angle_beta     104.59994429108613
_cell_angle_gamma    101.24501832803821

_space_group_name_H-M_alt    "P 1"
_space_group_IT_number       1

loop_
  _space_group_symop_operation_xyz
  'x, y, z'

loop_
  _atom_site_type_symbol
  _atom_site_label
  _atom_site_symmetry_multiplicity
  _atom_site_fract_x
  _atom_site_fract_y
  _atom_site_fract_z
  _atom_site_occupancy
  H   H1        1.0  0.4710129531452378  0.2167875149934314  0.3642535756988748  1.0000
  H   H2        1.0  0.5289870476151359  0.7832124844055675  0.6357464244744055  1.0000
  H   H3        1.0  0.40215874973054894  0.348340041467226  0.3663982014473799  1.0000
  H   H4        1.0  0.5978412498094648  0.6516599577301537  0.6336017982020958  1.0000
  H   H5        1.0  0.3207641086262037  0.41988029994362364  0.4715398427634403  1.0000
  H   H6        1.0  0.6792358913871549  0.5801197003714561  0.5284601574104775  1.0000
  H   H7        1.0  0.5246390187410056  0.332389925236777  0.6647679427418367  1.0000
  H   H8        1.0  0.47536098127235293  0.6676100750783027  0.33523205743208095  1.0000
  H   H9        1.0  0.6054575371948365  0.1741573680302143  0.5971258423592949  1.0000
  H   H10       1.0  0.3945424626347865  0.825842631367643  0.4028741578145356  1.0000
  H   H11       1.0  0.5486223481547873  0.1408499490613161  0.46736384081149657  1.0000
  H   H12       1.0  0.45137765185857137  0.8591500512537635  0.5326361593624211  1.0000
  H   H13       1.0  0.21048976543143222  0.5139419278226135  0.2653372032884258  1.0000
  H   H14       1.0  0.7895102343981906  0.48605807157524383  0.7346627968854046  1.0000
  H   H15       1.0  0.3336142302198839  0.4330076948225148  0.29341133615391013  1.0000
  H   H16       1.0  0.6663857697934747  0.566992305492565  0.7065886640200075  1.0000
  H   H17       1.0  0.14538256272864972  0.5348989060056978  0.1390219050046624  1.0000
  H   H18       1.0  0.854617437284709  0.465101094309382  0.8609780951692553  1.0000
  H   H19       1.0  0.42491261192351154  0.47949219180671576  0.024290952304739905  1.0000
  H   H20       1.0  0.5750873879061112  0.5205078075911415  0.9757090478690905  1.0000
  H   H21       1.0  0.5349235680678546  0.3733002179289349  0.11377079149042447  1.0000
  H   H22       1.0  0.4650764317617684  0.6266997814689224  0.886229208683406  1.0000
  H   H23       1.0  0.4546405507497079  0.35389088372566824  0.21808110313605564  1.0000
  H   H24       1.0  0.5453594492636508  0.6461091165894114  0.781918897037862  1.0000
  C   C1        1.0  0.2617990757805216  0.9532867990659757  0.30594222866248877  1.0000
  C   C2        1.0  0.7382009251635878  0.04671320125024583  0.6940577715108788  1.0000
  C   C3        1.0  0.2055244202776144  0.8236820765009948  0.2943136831225498  1.0000
  C   C4        1.0  0.7944755797357441  0.17631792381408498  0.7056863170513679  1.0000
  C   C5        1.0  0.12391645036844331  0.7788008797936042  0.3367485677850898  1.0000
  C   C6        1.0  0.8760835496449153  0.22119912052147542  0.6632514323888279  1.0000
  C   C7        1.0  0.10278488886067517  0.8654858056670146  0.3884716907975086  1.0000
  C   C8        1.0  0.8972151111526835  0.1345141946480651  0.611528309376409  1.0000
  C   C9        1.0  0.1632499953376372  0.9982052652618569  0.39992677406217503  1.0000
  C   C10       1.0  0.8367500044919856  0.0017947341360001587  0.6000732261116555  1.0000
  C   C11       1.0  0.2436405340614801  0.04080620080946769  0.36050153847624833  1.0000
  C   C12       1.0  0.7563594656622694  0.9591937993051345  0.6394984611733145  1.0000
  C   C13       1.0  0.25768314604225945  0.17068224039609536  0.3427065291905633  1.0000
  C   C14       1.0  0.7423168539710993  0.8293177599189844  0.6572934709833543  1.0000
  C   C15       1.0  0.24424956890186653  0.136919475014848  0.26379091206189187  1.0000
  C   C16       1.0  0.7557504317526338  0.863080525100896  0.7362090875871209  1.0000
  C   C17       1.0  0.2610448061100035  0.012288835589621802  0.24689357137186205  1.0000
  C   C18       1.0  0.7389551937196194  0.9877111638082354  0.7531064288019684  1.0000
  C   C19       1.0  0.20854190200887923  0.9412283150055907  0.17858973509114304  1.0000
  C   C20       1.0  0.7914580980044795  0.058771685309488966  0.8214102650827747  1.0000
  C   C21       1.0  0.14982743938032253  0.8080755373149023  0.16645751959837338  1.0000
  C   C22       1.0  0.8501725603434271  0.19192446279969996  0.8335424800511896  1.0000
  C   C23       1.0  0.14773236885662058  0.7504649548207446  0.22318227662206008  1.0000
  C   C24       1.0  0.8522676311567381  0.24953504549433525  0.7768177235518576  1.0000
  C   C25       1.0  0.02867090793306894  0.6600466374045068  0.22149350569526477  1.0000
  C   C26       1.0  0.9713290920802897  0.33995336291057304  0.7785064944786529  1.0000
  C   C27       1.0  0.013885255217602964  0.6776221198260344  0.29177461283333733  1.0000
  C   C28       1.0  0.9861147445061464  0.32237788028856784  0.7082253868162256  1.0000
  C   C29       1.0  0.887435770000721  0.6673551436198463  0.3005192083212579  1.0000
  C   C30       1.0  0.1125642306537792  0.33264485649589765  0.6994807913277549  1.0000
  C   C31       1.0  0.8661740526267894  0.7574499581502229  0.35411353760587516  1.0000
  C   C32       1.0  0.13382594813358425  0.24255004124877602  0.6458864625674051  1.0000
  C   C33       1.0  0.9714726761985456  0.854340100688638  0.39711375374803415  1.0000
  C   C34       1.0  0.028527323814812953  0.14565989962644177  0.6028862464258836  1.0000
  C   C35       1.0  0.9517250169642488  0.9794305835257971  0.41477361985231537  1.0000
  C   C36       1.0  0.04827498286537409  0.020569415872060015  0.5852263803215152  1.0000
  C   C37       1.0  0.06877524064908468  0.06783618050302402  0.4163347094084246  1.0000
  C   C38       1.0  0.9312247591805382  0.9321638188948331  0.5836652907654059  1.0000
  C   C39       1.0  0.0616874184221592  0.1831854559372406  0.39495335454419744  1.0000
  C   C40       1.0  0.9383125811178544  0.8168145432601392  0.6050466451052783  1.0000
  C   C41       1.0  0.14573385878201847  0.23013359733079555  0.3534102429267906  1.0000
  C   C42       1.0  0.8542661421620908  0.7698664029854257  0.6465897572465769  1.0000
  C   C43       1.0  0.10222618414499564  0.3042018287520855  0.30782623655779745  1.0000
  C   C44       1.0  0.8977738153950182  0.6957981704452944  0.6921737630916783  1.0000
  C   C45       1.0  0.13845429013803798  0.31150420668810597  0.2389800355490099  1.0000
  C   C46       1.0  0.8615457098753206  0.6884957936269737  0.7610199646249077  1.0000
  C   C47       1.0  0.17877562284058743  0.19227395549973814  0.21362022299073097  1.0000
  C   C48       1.0  0.8212243771727711  0.8077260448153415  0.7863797771831867  1.0000
  C   C49       1.0  0.1182717896151818  0.11832944505289415  0.1422566669325093  1.0000
  C   C50       1.0  0.8817282103981768  0.8816705552621855  0.8577433332414084  1.0000
  C   C51       1.0  0.13186738900762443  0.9931734887639072  0.12633802497064608  1.0000
  C   C52       1.0  0.86813261146314  0.006826510434614104  0.8736619746782793  1.0000
  C   C53       1.0  0.023139342032379953  0.8926699959572202  0.08105650494167736  1.0000
  C   C54       1.0  0.9768606576913695  0.1073300041573821  0.9189434947078855  1.0000
  C   C55       1.0  0.033648039134591017  0.778859183945768  0.10606922529720533  1.0000
  C   C56       1.0  0.9663519608787676  0.22114081636931168  0.8939307748767125  1.0000
  C   C57       1.0  0.9192708542919391  0.6926570739041348  0.1045185510834201  1.0000
  C   C58       1.0  0.08072914543181037  0.30734292621046755  0.8954814485661429  1.0000
  C   C59       1.0  0.9168029653894582  0.6321218055411273  0.16312607352359557  1.0000
  C   C60       1.0  0.08319703415055561  0.36787819365625246  0.8368739261258801  1.0000
  C   C61       1.0  0.7861096199221665  0.6214221997434601  0.17259748083500215  1.0000
  C   C62       1.0  0.21389038102194285  0.37857780057276136  0.8274025193383653  1.0000
  C   C63       1.0  0.7718330646493446  0.6388597206803598  0.23996042984792743  1.0000
  C   C64       1.0  0.2281669351802782  0.3611402787174975  0.7600395703259031  1.0000
  C   C65       1.0  0.6795176822101168  0.7092588812129489  0.256504882244714  1.0000
  C   C66       1.0  0.3204823178032419  0.2907411191021309  0.7434951179292036  1.0000
  C   C67       1.0  0.7377674876485704  0.7824808743421334  0.32673653402011626  1.0000
  C   C68       1.0  0.2622325118914434  0.21751912485524647  0.6732634656293595  1.0000
  C   C69       1.0  0.7127158067490662  0.9014952896052553  0.3471187841042952  1.0000
  C   C70       1.0  0.28728419326429244  0.09850471070982438  0.6528812160696225  1.0000
  C   C71       1.0  0.8231302167498014  0.0035223546744892545  0.3929032053999585  1.0000
  C   C72       1.0  0.17686978390469896  0.9964776454412546  0.6070967942490544  1.0000
  C   C73       1.0  0.8205509754351137  0.12854030971924357  0.3876377617634388  1.0000
  C   C74       1.0  0.1794490242886358  0.8714596903953586  0.6123622378861242  1.0000
  C   C75       1.0  0.9390362540481402  0.21729724527535  0.38850921905372027  1.0000
  C   C76       1.0  0.06096374578148276  0.7827027541225073  0.6114907811201102  1.0000
  C   C77       1.0  0.9001463508539608  0.3007645737735127  0.34411415703572074  1.0000
  C   C78       1.0  0.09985364886978881  0.6992354263410897  0.6558858426138423  1.0000
  C   C79       1.0  0.9801311806948733  0.3407991367540982  0.30310800906129653  1.0000
  C   C80       1.0  0.019868819318485328  0.6592008635609815  0.6968919911126211  1.0000
  C   C81       1.0  0.9212833987838565  0.350902957864394  0.23203667415222573  1.0000
  C   C82       1.0  0.0787166010457665  0.6490970415334633  0.7679633260216048  1.0000
  C   C83       1.0  0.006017055583974695  0.3188299585429467  0.1911572681994797  1.0000
  C   C84       1.0  0.9939829453601348  0.6811700417732748  0.8088427319738878  1.0000
  C   C85       1.0  0.950146603086456  0.24735824439946139  0.12390567102483958  1.0000
  C   C86       1.0  0.049853397673917735  0.7526417549995376  0.8760943291484408  1.0000
  C   C87       1.0  0.004139305174627696  0.1441452529841465  0.09905691309324648  1.0000
  C   C88       1.0  0.9958606946549952  0.8558547464137107  0.9009430870805839  1.0000
  C   C89       1.0  0.8960695967658233  0.04484852965723559  0.05468041129719805  1.0000
  C   C90       1.0  0.103930402957926  0.9551514704573666  0.9453195883523648  1.0000
  C   C91       1.0  0.8985679144838941  0.9158939538043922  0.05078972280092629  1.0000
  C   C92       1.0  0.10143208523985545  0.0841060463102101  0.9492102768486366  1.0000
  C   C93       1.0  0.7780968824846477  0.8253548895546249  0.04888491214836081  1.0000
  C   C94       1.0  0.22190311752871097  0.17464511076045466  0.9511150880255569  1.0000
  C   C95       1.0  0.791370626682233  0.7182566032822395  0.07812059904886165  1.0000
  C   C96       1.0  0.2086293742618765  0.281743397033982  0.921879401124506  1.0000
  C   C97       1.0  0.7088071247233471  0.6740624799645559  0.11994786690003445  1.0000
  C   C98       1.0  0.29119287500040253  0.32593752015004646  0.8800521327495285  1.0000
  C   C99       1.0  0.610927109557349  0.7356352590512683  0.13342712222048628  1.0000
  C   C100      1.0  0.3890728904560097  0.2643647412638115  0.8665728779534314  1.0000
  C   C101      1.0  0.595141866678885  0.7535817796478538  0.2042153024849011  1.0000
  C   C102      1.0  0.4048581333344737  0.24641822066722605  0.7957846976890167  1.0000
  C   C103      1.0  0.5491817733054137  0.8586070133668591  0.22852657026402026  1.0000
  C   C104      1.0  0.45081822652420916  0.14139298603099817  0.7714734299098102  1.0000
  C   C105      1.0  0.6070513602887386  0.9317010718148468  0.2993207217094724  1.0000
  C   C106      1.0  0.39294863925127504  0.06829892738253304  0.7006792779400033  1.0000
  C   C107      1.0  0.6032253341522025  0.06057243987719788  0.2981316210111327  1.0000
  C   C108      1.0  0.396774665571547  0.9394275602374045  0.7018683786384302  1.0000
  C   C109      1.0  0.708588225567142  0.15766800750583082  0.34170991687796476  1.0000
  C   C110      1.0  0.2914117742624809  0.8423319918920265  0.6582900832958657  1.0000
  C   C111      1.0  0.7571827257844913  0.26590517586101226  0.31506133820333854  1.0000
  C   C112      1.0  0.2428172737555225  0.7340948233363677  0.6849386614461372  1.0000
  C   C113      1.0  0.699393543862063  0.27332862229394966  0.24588662838214467  1.0000
  C   C114      1.0  0.30060645596755986  0.7266713771039076  0.7541133717916859  1.0000
  C   C115      1.0  0.7824418441186918  0.31777458911035655  0.2036302571509294  1.0000
  C   C116      1.0  0.21755815589466698  0.6822254112047231  0.7963697430229884  1.0000
  C   C117      1.0  0.724286688062156  0.24539486153416662  0.1326944899398593  1.0000
  C   C118      1.0  0.2757133119512026  0.7546051387809131  0.8673055102340584  1.0000
  C   C119      1.0  0.807385516216309  0.2103017460996508  0.09380455811272619  1.0000
  C   C120      1.0  0.19261448361331365  0.7896982532982064  0.9061954420611043  1.0000
  C   C121      1.0  0.7743507098976459  0.08463061604393343  0.05141190419239807  1.0000
  C   C122      1.0  0.22564928982610358  0.9153693840706688  0.9485880954571648  1.0000
  C   C123      1.0  0.6597114928774939  0.9982117116034503  0.04902021656103988  1.0000
  C   C124      1.0  0.34028850713586484  0.0017882887116294325  0.9509797836128779  1.0000
  C   C125      1.0  0.6626541473929639  0.8688097937606216  0.050309520958180275  1.0000
  C   C126      1.0  0.33734585243665904  0.1311902056372355  0.9496904792156503  1.0000
  C   C127      1.0  0.5798488153340975  0.8243750055527183  0.09182820213018326  1.0000
  C   C128      1.0  0.42015118542627616  0.1756249938462806  0.908171798043097  1.0000
  C   C129      1.0  0.5254416670651055  0.9260570431395578  0.11635048036485711  1.0000
  C   C130      1.0  0.47455833294825306  0.07394295717552171  0.8836495198090605  1.0000
  C   C131      1.0  0.5105045738017735  0.9428262458193952  0.18356155408651667  1.0000
  C   C132      1.0  0.4894954260278494  0.057173753578462015  0.8164384460873138  1.0000
  C   C133      1.0  0.5430450076848224  0.06823398148162298  0.22647728056873884  1.0000
  C   C134      1.0  0.45695499232853615  0.9317660188334568  0.7735227196051788  1.0000
  C   C135      1.0  0.5894683537161945  0.1725235950690459  0.20069449609963705  1.0000
  C   C136      1.0  0.4105316461134284  0.8274764043288114  0.7993055040741934  1.0000
  C   C137      1.0  0.6049325411885372  0.15507852015366516  0.1305722444227976  1.0000
  C   C138      1.0  0.3950674586410858  0.844921479244192  0.8694277557510328  1.0000
  C   C139      1.0  0.5735045023584046  0.033967808348910104  0.08945308254728458  1.0000
  C   C140      1.0  0.426495497365345  0.9660321917656923  0.9105469171022784  1.0000
  C   C141      1.0  0.3976410724558459  0.25824992676547176  0.38254505307248243  1.0000
  C   C142      1.0  0.602358927373777  0.7417500726323855  0.6174549471013481  1.0000
  C   C143      1.0  0.43172557546877677  0.2783945513926071  0.4607821578341421  1.0000
  C   C144      1.0  0.5682744245445818  0.7216054489224726  0.5392178423397755  1.0000
  C   C145      1.0  0.38351397191089975  0.36574939529707  0.49866718087175443  1.0000
  C   C146      1.0  0.6164860278128498  0.6342506048175324  0.5013328187778086  1.0000
  C   C147      1.0  0.41709856486722563  0.38349223082962225  0.5714481211999612  1.0000
  C   C148      1.0  0.5829014351461329  0.6165077694854575  0.4285518789739564  1.0000
  C   C149      1.0  0.49850094956102003  0.3169451626612458  0.6078772645472512  1.0000
  C   C150      1.0  0.5014990501627294  0.6830548374533566  0.39212273510231177  1.0000
  C   C151      1.0  0.5441190294291036  0.22850550334464323  0.5695254104170988  1.0000
  C   C152      1.0  0.45588097011091017  0.7714944958527367  0.43047458923237697  1.0000
  C   C153      1.0  0.5112742178598148  0.20928730803825182  0.496715930869715  1.0000
  C   C154      1.0  0.4887257821535439  0.7907126922768278  0.5032840693042027  1.0000
  C   C155      1.0  0.2492896125438504  0.4330974908893597  0.24940925568841718  1.0000
  C   C156      1.0  0.7507103874695081  0.5669025094257201  0.7505907444855006  1.0000
  C   C157      1.0  0.29587233681345837  0.4441963529115931  0.18593649790350658  1.0000
  C   C158      1.0  0.7041276641306511  0.5558036474046283  0.8140635022698609  1.0000
  C   C159      1.0  0.23152010814924548  0.5004484114338085  0.1342291766688628  1.0000
  C   C160      1.0  0.7684798918641133  0.4995515888812713  0.8657708235050551  1.0000
  C   C161      1.0  0.2801995286650152  0.5134744955373933  0.07724770977546716  1.0000
  C   C162      1.0  0.719800471989485  0.4865255045783507  0.9227522898735455  1.0000
  C   C163      1.0  0.3886582229518861  0.46795966741603623  0.06912896359250881  1.0000
  C   C164      1.0  0.6113417768777368  0.5320403319818211  0.9308710365813216  1.0000
  C   C165      1.0  0.44995517169791077  0.40880944339345593  0.11970694136442474  1.0000
  C   C166      1.0  0.550044828315448  0.5911905569216238  0.8802930588094932  1.0000
  C   C167      1.0  0.40468061964265195  0.3978107283558537  0.17792181506253973  1.0000
  C   C168      1.0  0.5953193800810975  0.6021892717587487  0.8220781845870232  1.0000
  C   C169      1.0  1.6391108566429418e-10  0.49999999985227556  0.5000000001539242  1.0000
  S   S1        1.0  0.09347116892140844  0.5811026862536964  0.4673848540269192  1.0000
  S   S2        1.0  0.9065288310919501  0.41889731406138336  0.5326151461469986  1.0000
  Br  Br1       1.0  0.20211005047859606  0.6006961078587627  0.010216154761490664  1.0000
  Br  Br2       1.0  0.7978899495347624  0.3993038924563169  0.989783845412427  1.0000
  Br  Br3       1.0  0.34774312130973084  0.5010151372129903  0.6217220525062549  1.0000
  Br  Br4       1.0  0.6522568796343785  0.4989848631032311  0.37827794766711254  1.0000
