data_image0
_chemical_formula_structural       H36C36N8O12I4
_chemical_formula_sum              "H36 C36 N8 O12 I4"
_cell_length_a       8.131801092658437
_cell_length_b       11.633268001729624
_cell_length_c       12.451023179092644
_cell_angle_alpha    67.52490520775429
_cell_angle_beta     76.01435555186163
_cell_angle_gamma    76.15672276994141

_space_group_name_H-M_alt    "P 1"
_space_group_IT_number       1

loop_
  _space_group_symop_operation_xyz
  'x, y, z'

loop_
  _atom_site_type_symbol
  _atom_site_label
  _atom_site_symmetry_multiplicity
  _atom_site_fract_x
  _atom_site_fract_y
  _atom_site_fract_z
  _atom_site_occupancy
  H   H1        1.0  0.18232009928244403  0.5353691137467573  0.8748852328845056  1.0000
  H   H2        1.0  0.8176798999204414  0.4646308861276598  0.1251147671492143  1.0000
  H   H3        1.0  0.37796791226335763  0.5371017104427622  0.911812290526596  1.0000
  H   H4        1.0  0.6220320871545238  0.46289828975680714  0.088187708625517  1.0000
  H   H5        1.0  0.3442268650019674  0.3470685555822066  0.07740977946286208  1.0000
  H   H6        1.0  0.6557731354315708  0.652931444289484  0.9225902205708976  1.0000
  H   H7        1.0  0.14423519050575154  0.3506391853716809  0.045748927207039984  1.0000
  H   H8        1.0  0.8557648099277867  0.6493608145000098  0.9542510728267196  1.0000
  H   H9        1.0  0.5845246624413095  0.9047801664409584  0.7917349974246548  1.0000
  H   H10       1.0  0.41547533799222874  0.09521983343073225  0.20826500260910472  1.0000
  H   H11       1.0  0.48211495997140863  0.7247376101788724  0.7745983104735532  1.0000
  H   H12       1.0  0.5178850404621297  0.27526238969281813  0.22540168956020637  1.0000
  H   H13       1.0  0.5514054481951959  0.6907640834541704  0.5804387868485775  1.0000
  H   H14       1.0  0.44859455223834227  0.30923591641752013  0.419561213185182  1.0000
  H   H15       1.0  0.7125876814342345  0.8439093077483867  0.407059283125131  1.0000
  H   H16       1.0  0.2874123177686513  0.1560906921260304  0.5929407169085887  1.0000
  H   H17       1.0  0.7955224349999744  0.02494708148885043  0.4375104773475683  1.0000
  H   H18       1.0  0.20447756420291133  0.9750529183855666  0.5624895226861515  1.0000
  H   H19       1.0  0.196023233758833  0.5591465671634965  0.4282777876388302  1.0000
  H   H20       1.0  0.8039767654440528  0.4408534327109204  0.5717222123948896  1.0000
  H   H21       1.0  0.3538966043306876  0.5154366528921479  0.5181960926607513  1.0000
  H   H22       1.0  0.6461033948721981  0.4845633469822691  0.4818039073729685  1.0000
  H   H23       1.0  0.25289670708552586  0.7127481253182433  0.5514053950074844  1.0000
  H   H24       1.0  0.7471032930486428  0.28725187543861075  0.44859460502668497  1.0000
  H   H25       1.0  0.07001757698482834  0.7399662609878129  0.48669959563940424  1.0000
  H   H26       1.0  0.9299824222180575  0.2600337388866041  0.5133004043943156  1.0000
  H   H27       1.0  0.6691022350315327  0.06256294619050612  0.012593049089100626  1.0000
  H   H28       1.0  0.3308977638719832  0.9374370545690746  0.987406950945029  1.0000
  H   H29       1.0  0.8321185416459352  0.8551327824221201  0.12499832585487444  1.0000
  H   H30       1.0  0.16788145725758066  0.1448672183374606  0.8750016741792551  1.0000
  H   H31       1.0  0.03309516939083589  0.8508128021396231  0.25057708377399796  1.0000
  H   H32       1.0  0.9669048310427025  0.1491871977320674  0.7494229162597617  1.0000
  H   H33       1.0  0.0674793993813052  0.05781927444722547  0.25780964538441364  1.0000
  H   H34       1.0  0.9325205995222109  0.9421807263123552  0.7421903546497158  1.0000
  H   H35       1.0  0.893245488911229  0.25752633516268497  0.14308530197515498  1.0000
  H   H36       1.0  0.10675451152230912  0.7424736647090057  0.8569146980586047  1.0000
  C   C1        1.0  0.4012516860792324  0.43088680977500016  0.7992303639029708  1.0000
  C   C2        1.0  0.5987483143543058  0.5691131900966904  0.2007696361307888  1.0000
  C   C3        1.0  0.30424177319131634  0.47664367983258826  0.8996433057380222  1.0000
  C   C4        1.0  0.6957582272422218  0.5233563200391024  0.10035669429573736  1.0000
  C   C5        1.0  0.2789774887470336  0.35735017954867837  0.006169963911308441  1.0000
  C   C6        1.0  0.7210225116865049  0.6426498203230121  0.993830036122451  1.0000
  C   C7        1.0  0.3577665745871034  0.24973261657705262  0.9604762993314185  1.0000
  C   C8        1.0  0.6422334258464347  0.750267383294638  0.03952370070234101  1.0000
  C   C9        1.0  0.6019239661896579  0.8880048266609918  0.7090062550931822  1.0000
  C   C10       1.0  0.3980760339445107  0.11199517409586238  0.2909937449409871  1.0000
  C   C11       1.0  0.5498790675721257  0.7889921504621952  0.6968483580208796  1.0000
  C   C12       1.0  0.4501209325620427  0.21100785029465907  0.30315164201328976  1.0000
  C   C13       1.0  0.5880394657531789  0.7708428732993673  0.5885784813841115  1.0000
  C   C14       1.0  0.4119605346803594  0.22915712657232334  0.41142151864964804  1.0000
  C   C15       1.0  0.6775509910812803  0.8557146377514335  0.49264343695846674  1.0000
  C   C16       1.0  0.3224490081216053  0.1442853621229837  0.507356563075253  1.0000
  C   C17       1.0  0.7258338558247772  0.9545228378860223  0.5066494468205409  1.0000
  C   C18       1.0  0.2741661446087612  0.045477161985668264  0.49335055321321875  1.0000
  C   C19       1.0  0.11952908577413572  0.4500924434870081  0.6107842723000416  1.0000
  C   C20       1.0  0.8804709146594025  0.5499075563846825  0.38921572773371793  1.0000
  C   C21       1.0  0.21639176751424138  0.548911943125982  0.5155170149363961  1.0000
  C   C22       1.0  0.7836082329192968  0.4510880567457085  0.4844829850973635  1.0000
  C   C23       1.0  0.1513352103415491  0.6679737964540985  0.5477268329010258  1.0000
  C   C24       1.0  0.8486647888613364  0.3320262034203187  0.45227316713269405  1.0000
  C   C25       1.0  0.04099437980359438  0.6261552410972864  0.6681436672613805  1.0000
  C   C26       1.0  0.9590056206299441  0.3738447587744042  0.33185633277237897  1.0000
  C   C27       1.0  0.7593934454612143  0.05471296342612137  0.06783479983739518  1.0000
  C   C28       1.0  0.24060655497232405  0.9452870364455692  0.9321652001963644  1.0000
  C   C29       1.0  0.850166242590899  0.9417394106213094  0.13137230824338886  1.0000
  C   C30       1.0  0.1498337566119866  0.05826058925310777  0.8686276917903308  1.0000
  C   C31       1.0  0.9622607630801968  0.9400390704470571  0.2009225377733961  1.0000
  C   C32       1.0  0.037739236122688806  0.05996092942735998  0.7990774622603237  1.0000
  C   C33       1.0  0.9807979612908608  0.05441032197875116  0.20523223447458122  1.0000
  C   C34       1.0  0.019202039142677388  0.9455896778929394  0.7947677655591784  1.0000
  C   C35       1.0  0.8873022636342714  0.16562742540717398  0.14222010287731057  1.0000
  C   C36       1.0  0.1126977367992668  0.8343725744645165  0.857779897156449  1.0000
  N   N1        1.0  0.4222316917443018  0.29987602111348427  0.8408724083131549  1.0000
  N   N2        1.0  0.5777683086892363  0.7001239787582063  0.15912759172060476  1.0000
  N   N3        1.0  0.6886823618795007  0.9689808760188655  0.6138918677201491  1.0000
  N   N4        1.0  0.3113176385540378  0.03101912385282505  0.38610813231361046  1.0000
  N   N5        1.0  0.02306092110915818  0.5017779947477768  0.6954206635544412  1.0000
  N   N6        1.0  0.9769390780937277  0.49822200512664006  0.30457933647927865  1.0000
  N   N7        1.0  0.7783684299323936  0.16430151492041986  0.07531279819647238  1.0000
  N   N8        1.0  0.22163157050114465  0.8356984849512706  0.9246872018372871  1.0000
  O   O1        1.0  0.36477829332228034  0.13643217913442995  0.017593474769996214  1.0000
  O   O2        1.0  0.6352217071112579  0.8635678207372606  0.9824065252637634  1.0000
  O   O3        1.0  0.45279718044357337  0.4966030410517903  0.6981296962570531  1.0000
  O   O4        1.0  0.5472028199899649  0.5033969588199002  0.3018703037767063  1.0000
  O   O5        1.0  0.7451177337149847  0.06285311685241203  0.6226058690880415  1.0000
  O   O6        1.0  0.25488226641918377  0.9371468839044421  0.37739413094612784  1.0000
  O   O7        1.0  0.9770796262102014  0.689085056196883  0.7325936118476448  1.0000
  O   O8        1.0  0.022920374223336933  0.31091494367480765  0.2674063881861148  1.0000
  O   O9        1.0  0.12300223822720037  0.3417231403604466  0.6166274031627803  1.0000
  O   O10       1.0  0.8769977609756853  0.6582768595139705  0.38337259687093955  1.0000
  O   O11       1.0  0.686349801540013  0.2729932378453848  0.017295836673038446  1.0000
  O   O12       1.0  0.3136501988935255  0.7270067620263055  0.9827041633607211  1.0000
  I   I1        1.0  0.5668885074134573  0.18651756053813817  0.7401402920794602  1.0000
  I   I2        1.0  0.43311149302008106  0.8134824393335524  0.2598597079542993  1.0000
  I   I3        1.0  0.8650732344791469  0.39719909160119443  0.847490160301165  1.0000
  I   I4        1.0  0.13492676472373863  0.6028009082732226  0.1525098397325549  1.0000
