data_image0
_chemical_formula_structural       H52C60N8O12I4
_chemical_formula_sum              "H52 C60 N8 O12 I4"
_cell_length_a       5.742958887665685
_cell_length_b       8.160436951910643
_cell_length_c       29.72397121081926
_cell_angle_alpha    90.0
_cell_angle_beta     90.0
_cell_angle_gamma    90.0

_space_group_name_H-M_alt    "P 1"
_space_group_IT_number       1

loop_
  _space_group_symop_operation_xyz
  'x, y, z'

loop_
  _atom_site_type_symbol
  _atom_site_label
  _atom_site_symmetry_multiplicity
  _atom_site_fract_x
  _atom_site_fract_y
  _atom_site_fract_z
  _atom_site_occupancy
  H   H1        1.0  0.3120265206579545  0.09668578100039948  0.9156586469204105  1.0000
  H   H2        1.0  0.187973478674647  0.9033142187654656  0.41565864710240613  1.0000
  H   H3        1.0  0.8120265199905561  0.4033142194952453  0.08434135305202722  1.0000
  H   H4        1.0  0.6879734797485112  0.5966857802706197  0.5843413528700316  1.0000
  H   H5        1.0  0.17095867290790784  0.9018754686018176  0.9132624408584805  1.0000
  H   H6        1.0  0.32904132642469364  0.09812453238947198  0.413262441040476  1.0000
  H   H7        1.0  0.6709586722405093  0.5981245316596923  0.08673755911395728  1.0000
  H   H8        1.0  0.8290413274985579  0.4018754681061728  0.5867375589319618  1.0000
  H   H9        1.0  0.9125670952052068  0.9849955287159011  0.9723717943004755  1.0000
  H   H10       1.0  0.5874329045338602  0.015004471049964035  0.472371794482471  1.0000
  H   H11       1.0  0.4125670958726055  0.5150044715456089  0.027628205671962273  1.0000
  H   H12       1.0  0.08743290345999603  0.4849955282202562  0.5276282058263956  1.0000
  H   H13       1.0  0.06214179954630645  0.1729007120960169  0.9770355913757983  1.0000
  H   H14       1.0  0.43785819978629503  0.8270992876698481  0.47703559122136513  1.0000
  H   H15       1.0  0.5621417988789079  0.32709928839962793  0.022964408596639407  1.0000
  H   H16       1.0  0.9378582008601593  0.6729007125916617  0.5229644087510726  1.0000
  H   H17       1.0  0.038300955013349666  0.26570247313685047  0.7756954367392049  1.0000
  H   H18       1.0  0.4616990460605145  0.7342975266290146  0.27569543692120047  1.0000
  H   H19       1.0  0.5383009543459512  0.2342975261333697  0.2243045632332328  1.0000
  H   H20       1.0  0.961699045393116  0.7657024736324953  0.7243045630512372  1.0000
  H   H21       1.0  0.914317032858702  0.13540429103386314  0.7039507157907546  1.0000
  H   H22       1.0  0.5856829668803653  0.8645957087320019  0.20395071597275014  1.0000
  H   H23       1.0  0.4143170335261005  0.36459570946178166  0.2960492841816832  1.0000
  H   H24       1.0  0.08568296754776371  0.6354042903040834  0.7960492839996877  1.0000
  H   H25       1.0  0.5379879240709372  0.3419108935516903  0.6434657598187344  1.0000
  H   H26       1.0  0.96201207566813  0.6580891062141747  0.14346575966430108  1.0000
  H   H27       1.0  0.03798792473833568  0.1580891069439545  0.35653424015370344  1.0000
  H   H28       1.0  0.4620120745942658  0.8419108940473351  0.8565342403081366  1.0000
  H   H29       1.0  0.6288114960662454  0.4645266071337583  0.7167151343574736  1.0000
  H   H30       1.0  0.8711885036728217  0.5354733938575313  0.21671513420304023  1.0000
  H   H31       1.0  0.128811496733644  0.03547339336188646  0.28328486561496424  1.0000
  H   H32       1.0  0.3711885025989575  0.9645266064039786  0.7832848657693975  1.0000
  H   H33       1.0  0.8229395843578815  0.046652173436725626  0.6453421709350154  1.0000
  H   H34       1.0  0.6770604153811857  0.9533478263291394  0.14534217111701095  1.0000
  H   H35       1.0  0.32293958502528003  0.45334782583349464  0.3546578290374224  1.0000
  H   H36       1.0  0.17706041604858413  0.5466521739323704  0.8546578288554268  1.0000
  H   H37       1.0  0.7008728982275648  0.9430091630324092  0.5716661602678109  1.0000
  H   H38       1.0  0.7991271015115022  0.0569908367334559  0.07166616011337763  1.0000
  H   H39       1.0  0.20087289889496332  0.5569908372291007  0.42833383970462685  1.0000
  H   H40       1.0  0.29912710217890087  0.44300916253676437  0.9283338398590602  1.0000
  H   H41       1.0  0.9452653634103495  0.9960120307157052  0.5036477987352815  1.0000
  H   H42       1.0  0.5547346363287176  0.003987969050159797  0.0036477985808482257  1.0000
  H   H43       1.0  0.445265364077748  0.5039879695458046  0.4963522012371563  1.0000
  H   H44       1.0  0.05473463699611611  0.49601203144548495  0.9963522013915896  1.0000
  H   H45       1.0  0.3038362304399587  0.16764885484222544  0.5106566868990599  1.0000
  H   H46       1.0  0.19616376889264278  0.8323511461490642  0.010656686744626592  1.0000
  H   H47       1.0  0.8038362297725603  0.33235114565341933  0.4893433130733779  1.0000
  H   H48       1.0  0.696163769966507  0.6676488541124457  0.9893433132278112  1.0000
  H   H49       1.0  0.4258828171751278  0.27273305377096313  0.5840080195502769  1.0000
  H   H50       1.0  0.07411718389873637  0.7272669459949019  0.08400801939584356  1.0000
  H   H51       1.0  0.9258828165077293  0.22726694672468167  0.4159919804221609  1.0000
  H   H52       1.0  0.5741171832313379  0.7727330530411834  0.9159919805765941  1.0000
  C   C1        1.0  0.019257240416177258  0.08907862707398315  0.8718515428573425  1.0000
  C   C2        1.0  0.4807427606576869  0.9109213726918819  0.37185154270290915  1.0000
  C   C3        1.0  0.5192572397487787  0.4109213721962371  0.12814845711509534  1.0000
  C   C4        1.0  0.9807427599902884  0.589078627569628  0.6281484572695286  1.0000
  C   C5        1.0  0.1420659099183673  0.03480250281616413  0.9145338867138123  1.0000
  C   C6        1.0  0.35793408941423416  0.9651974969497009  0.4145338865593791  1.0000
  C   C7        1.0  0.6420659092509687  0.4651974964540561  0.08546611325862542  1.0000
  C   C8        1.0  0.8579340904880983  0.5348025033118089  0.5854661134130588  1.0000
  C   C9        1.0  0.9817505366631165  0.08825067998734852  0.9528157233476003  1.0000
  C   C10       1.0  0.5182494630759507  0.9117493197785166  0.45281572352959587  1.0000
  C   C11       1.0  0.4817505373305149  0.41174931928287173  0.047184276624837436  1.0000
  C   C12       1.0  0.018249463743349206  0.5882506804829933  0.547184276442842  1.0000
  C   C13       1.0  0.780139424229988  0.1742299031753574  0.92983039426239  1.0000
  C   C14       1.0  0.719860575509079  0.8257700965905077  0.42983039410795665  1.0000
  C   C15       1.0  0.28013942489738664  0.32577009609486285  0.07016960571004781  1.0000
  C   C16       1.0  0.21986057443521487  0.6742299036710022  0.5701696058644811  1.0000
  C   C17       1.0  0.13501297940079157  0.2798599160140913  0.7444424637292639  1.0000
  C   C18       1.0  0.36498701993180993  0.7201400837517737  0.24444246357483063  1.0000
  C   C19       1.0  0.6350129787333931  0.22014008325612894  0.2555575362431739  1.0000
  C   C20       1.0  0.8649870210056742  0.7798599165097361  0.7555575363976073  1.0000
  C   C21       1.0  0.07303171730878942  0.20867502194245818  0.7041382334666556  1.0000
  C   C22       1.0  0.4269682820238121  0.7913249778234069  0.20413823331222228  1.0000
  C   C23       1.0  0.5730317183826537  0.2913249785531866  0.295861766842211  1.0000
  C   C24       1.0  0.9269682830976763  0.7086750212126784  0.7958617666602155  1.0000
  C   C25       1.0  0.20843951583406922  0.2319412540227816  0.6651215639989544  1.0000
  C   C26       1.0  0.29156048349853225  0.7680587457430834  0.16512156418094992  1.0000
  C   C27       1.0  0.7084395169079335  0.26805874524743867  0.3348784359734834  1.0000
  C   C28       1.0  0.7915604828311338  0.7319412545184264  0.8348784357914879  1.0000
  C   C29       1.0  0.4155884234390044  0.3213642584893677  0.6707255160691061  1.0000
  C   C30       1.0  0.08441157763485979  0.6786357412764974  0.17072551591467283  1.0000
  C   C31       1.0  0.9155884227716058  0.17863574078085254  0.3292744839033317  1.0000
  C   C32       1.0  0.5844115769674613  0.8213642589850125  0.829274484057765  1.0000
  C   C33       1.0  0.47299868293226255  0.3917089671591157  0.7114266764698954  1.0000
  C   C34       1.0  0.02700131640033899  0.6082910326067493  0.211426676651891  1.0000
  C   C35       1.0  0.972998682264864  0.10829103333652917  0.2885733235025423  1.0000
  C   C36       1.0  0.5270013174742032  0.8917089676547604  0.7885733233205469  1.0000
  C   C37       1.0  0.1344560417554831  0.16899848722893498  0.6208498426779147  1.0000
  C   C38       1.0  0.3655439593183811  0.8310015125369301  0.12084984285991013  1.0000
  C   C39       1.0  0.6344560410880846  0.33100151204128525  0.3791501572945231  1.0000
  C   C40       1.0  0.8655439586509827  0.6689984877245798  0.8791501571125278  1.0000
  C   C41       1.0  0.9289391068875363  0.07607522779214014  0.6160424106902269  1.0000
  C   C42       1.0  0.5710608928515308  0.9239247719737249  0.11604241087222245  1.0000
  C   C43       1.0  0.42893910755493486  0.4239247727035047  0.38395758928221085  1.0000
  C   C44       1.0  0.07106089177766664  0.5760752282877849  0.8839575891002153  1.0000
  C   C45       1.0  0.8594142281952055  0.01634309912397205  0.5741915657551058  1.0000
  C   C46       1.0  0.6405857732851243  0.9836569006418929  0.07419156560067257  1.0000
  C   C47       1.0  0.35941422712134136  0.4836569013716728  0.42580843421733194  1.0000
  C   C48       1.0  0.14058577221126017  0.5163430983941923  0.9258084343717653  1.0000
  C   C49       1.0  0.9944877025441232  0.048028074024667945  0.5360214894233462  1.0000
  C   C50       1.0  0.505512297194944  0.9519719257411972  0.03602148926891284  1.0000
  C   C51       1.0  0.49448770321152175  0.4519719264709769  0.46397851054909167  1.0000
  C   C52       1.0  0.005512297862342429  0.5480280732948882  0.9639785107035249  1.0000
  C   C53       1.0  0.19701484237159408  0.14156253725231277  0.5401000998869396  1.0000
  C   C54       1.0  0.3029851569610074  0.8584374625135522  0.04010009973250636  1.0000
  C   C55       1.0  0.6970148434454582  0.3584374620179075  0.45989990008549814  1.0000
  C   C56       1.0  0.8029851580348716  0.6415625377479576  0.9598999002399314  1.0000
  C   C57       1.0  0.2659921792720529  0.20131275563808665  0.5818888340096493  1.0000
  C   C58       1.0  0.23400782180181132  0.7986872441277785  0.08188883385521593  1.0000
  C   C59       1.0  0.7659921786046543  0.2986872436321336  0.4181111659627885  1.0000
  C   C60       1.0  0.7340078211344128  0.7013127561337315  0.9181111661172218  1.0000
  N   N1        1.0  0.81759155373451  0.172520046205415  0.8837183374218457  1.0000
  N   N2        1.0  0.6824084460045572  0.82747995356045  0.3837183372674124  1.0000
  N   N3        1.0  0.3175915526606458  0.3274799542902298  0.11628166255059212  1.0000
  N   N4        1.0  0.1824084466719557  0.6725200467010598  0.6162816627050254  1.0000
  N   N5        1.0  0.3288735853666706  0.37484967018632454  0.7471742612210622  1.0000
  N   N6        1.0  0.1711264157071936  0.6251503308049651  0.24717426140305768  1.0000
  N   N7        1.0  0.8288735846992721  0.1251503303093203  0.25282573875137565  1.0000
  N   N8        1.0  0.6711264150397951  0.8748496694565447  0.7528257389058088  1.0000
  O   O1        1.0  0.08423097909318687  0.06588870218207006  0.8329730736311522  1.0000
  O   O2        1.0  0.4157690219806773  0.9341112975837951  0.3329730738131478  1.0000
  O   O3        1.0  0.5842309784257883  0.4341112983135747  0.16702692634128555  1.0000
  O   O4        1.0  0.9157690213132788  0.5658887026777148  0.66702692615929  1.0000
  O   O5        1.0  0.6082550299119169  0.23413930053741097  0.9484080394257323  1.0000
  O   O6        1.0  0.8917449715684128  0.7658606992284541  0.4484080396077277  1.0000
  O   O7        1.0  0.10825502883805276  0.26586069995823386  0.05159196054670559  1.0000
  O   O8        1.0  0.3917449704945487  0.7341393010330558  0.5515919603647101  1.0000
  O   O9        1.0  0.37721751145611015  0.4553768728192842  0.7853479185009814  1.0000
  O   O10       1.0  0.12278248787649132  0.5446231269465809  0.28534791868297693  1.0000
  O   O11       1.0  0.8772175125299744  0.04462312645093608  0.2146520814714564  1.0000
  O   O12       1.0  0.6227824872090929  0.955376873314929  0.7146520812894609  1.0000
  I   I1        1.0  0.6048586221748021  0.30043230950102257  0.8361124714369891  1.0000
  I   I2        1.0  0.8951413775642652  0.6995676902648424  0.3361124712825557  1.0000
  I   I3        1.0  0.10485862284220063  0.19956768976919764  0.16388752853544883  1.0000
  I   I4        1.0  0.39514137823166356  0.8004323099966674  0.6638875286898822  1.0000
