data_image0
_chemical_formula_structural       H48C40N8O14I4
_chemical_formula_sum              "H48 C40 N8 O14 I4"
_cell_length_a       9.696954499383125
_cell_length_b       11.357202759345107
_cell_length_c       11.559389548039263
_cell_angle_alpha    90.12581219704369
_cell_angle_beta     110.69710941241448
_cell_angle_gamma    93.02480034331192

_space_group_name_H-M_alt    "P 1"
_space_group_IT_number       1

loop_
  _space_group_symop_operation_xyz
  'x, y, z'

loop_
  _atom_site_type_symbol
  _atom_site_label
  _atom_site_symmetry_multiplicity
  _atom_site_fract_x
  _atom_site_fract_y
  _atom_site_fract_z
  _atom_site_occupancy
  H   H1        1.0  0.5509917246032171  0.10080512349457968  0.388150387131999  1.0000
  H   H2        1.0  0.44900827521008496  0.8991948764072141  0.6118496131968563  1.0000
  H   H3        1.0  0.4234657379883363  0.1856930506631319  0.27832445316439003  1.0000
  H   H4        1.0  0.5765342624637289  0.8143069492192962  0.7216755462384281  1.0000
  H   H5        1.0  0.2946256223705409  0.22173146813284644  0.4177357539990597  1.0000
  H   H6        1.0  0.7053743774427612  0.7782685317689474  0.5822642463297956  1.0000
  H   H7        1.0  0.39339248248188075  0.1089101299647734  0.510556509745895  1.0000
  H   H8        1.0  0.6066075183622154  0.8910898699366238  0.48944349058193387  1.0000
  H   H9        1.0  0.12702972918897895  0.5347078173206735  0.7398418303018613  1.0000
  H   H10       1.0  0.8729702706243232  0.46529218258112026  0.2601581700269939  1.0000
  H   H11       1.0  0.3272227596926476  0.49687961642070405  0.9424249415862779  1.0000
  H   H12       1.0  0.6727772401206545  0.5031203834810897  0.05757505874257738  1.0000
  H   H13       1.0  0.30058957659662006  0.5730103967100183  0.1388241456168457  1.0000
  H   H14       1.0  0.699410423216682  0.4269896031917754  0.8611758547120094  1.0000
  H   H15       1.0  0.07428228134231396  0.6802391379605157  0.12230202145664934  1.0000
  H   H16       1.0  0.9257177180789571  0.319760861922309  0.8776979779471951  1.0000
  H   H17       1.0  0.8415273469050707  0.8075020498558444  0.853218929650788  1.0000
  H   H18       1.0  0.1584726539390255  0.19249795004555273  0.14678107067704094  1.0000
  H   H19       1.0  0.8430163612644883  0.7518132278240832  0.9985216658322897  1.0000
  H   H20       1.0  0.15698363821203046  0.2481867729404841  0.001478333572300563  1.0000
  H   H21       1.0  0.7493125533582053  0.6701283994479175  0.8569805025922406  1.0000
  H   H22       1.0  0.25068744606306576  0.32987160043490726  0.14301949681160386  1.0000
  H   H23       1.0  0.20362515855354918  0.2504993564995013  0.5884143011987166  1.0000
  H   H24       1.0  0.796374841259753  0.7495006434022925  0.41158569913013865  1.0000
  H   H25       1.0  0.06787251523317431  0.3551433334675516  0.5386959917692368  1.0000
  H   H26       1.0  0.9321274852188907  0.6448566664148766  0.46130400763358137  1.0000
  H   H27       1.0  0.058515636960236934  0.12077451219149916  0.41827853416760935  1.0000
  H   H28       1.0  0.9414843624610341  0.8792254876913256  0.5817214652362351  1.0000
  H   H29       1.0  0.9289288274369768  0.23100697161955402  0.36721635439930805  1.0000
  H   H30       1.0  0.07107117301508822  0.768993028262874  0.6327836450035101  1.0000
  H   H31       1.0  0.439932604482103  0.09833221543699633  0.7517834057653069  1.0000
  H   H32       1.0  0.5600673953311992  0.9016677844647975  0.24821659456354844  1.0000
  H   H33       1.0  0.33388369035284604  0.24843860022682657  0.8535752083757248  1.0000
  H   H34       1.0  0.6661163094604561  0.7515613996749672  0.14642479195313055  1.0000
  H   H35       1.0  0.46475326360275193  0.29301338380552555  0.082171052966889  1.0000
  H   H36       1.0  0.5352467358185193  0.7069866160772993  0.9178289464369556  1.0000
  H   H37       1.0  0.6918595243991683  0.19001796890534126  0.19508397142133074  1.0000
  H   H38       1.0  0.30814047541413375  0.8099820309964526  0.8049160289075246  1.0000
  H   H39       1.0  0.8123168571261602  0.9371272897824665  0.08365212100194867  1.0000
  H   H40       1.0  0.187683142687142  0.06287271011932724  0.9163478793269066  1.0000
  H   H41       1.0  0.878478389697717  0.05726477843991739  0.1924664268387708  1.0000
  H   H42       1.0  0.12152161011558515  0.9427352214618764  0.8075335734900845  1.0000
  H   H43       1.0  0.9105939673045828  0.05797231174234203  0.049092743437532366  1.0000
  H   H44       1.0  0.08940603217193621  0.9420276890222252  0.9509072559670582  1.0000
  H   H45       1.0  0.3993319848588071  0.5621193958832493  0.7473479927234687  1.0000
  H   H46       1.0  0.600668015985289  0.43788060401814777  0.25265200760436013  1.0000
  H   H47       1.0  0.4659926869730985  0.440990515223957  0.7487182310241625  1.0000
  H   H48       1.0  0.5340073124481726  0.5590094846588678  0.2512817683796821  1.0000
  C   C1        1.0  0.6046656444168236  0.28444369163418726  0.4137316064095702  1.0000
  C   C2        1.0  0.39533435500444747  0.7155563082486375  0.5862683929942744  1.0000
  C   C3        1.0  0.4909847385468763  0.18200596255003773  0.37665992438263  1.0000
  C   C4        1.0  0.5090152608743947  0.8179940373327871  0.6233400750212145  1.0000
  C   C5        1.0  0.4062465733665097  0.19117579039520147  0.4648934755760188  1.0000
  C   C6        1.0  0.5937534264467924  0.8088242095065924  0.5351065247528365  1.0000
  C   C7        1.0  0.4929091455719909  0.28523135662818694  0.5592398595635718  1.0000
  C   C8        1.0  0.5070908552721051  0.7147686432732101  0.44076014076425696  1.0000
  C   C9        1.0  0.12434579728509271  0.5637604941317773  0.8285598439453988  1.0000
  C   C10       1.0  0.8756542035590034  0.43623950576961984  0.17144015638242993  1.0000
  C   C11       1.0  0.2318514333350594  0.5437583913045692  0.9414849657827988  1.0000
  C   C12       1.0  0.7681485664782428  0.4562416085972246  0.05851503454605657  1.0000
  C   C13       1.0  0.2164928403260303  0.5870774880646172  0.04908111971255789  1.0000
  C   C14       1.0  0.7835071591504885  0.41292251269994984  0.9509188796920326  1.0000
  C   C15       1.0  0.09192496648522624  0.6473579918589475  0.04022078651442603  1.0000
  C   C16       1.0  0.9080750339668388  0.3526420080234806  0.959779212888392  1.0000
  C   C17       1.0  0.9839597569994869  0.6663293483476773  0.9256154219320245  1.0000
  C   C18       1.0  0.016040242813815154  0.33367065155411646  0.07438457839683069  1.0000
  C   C19       1.0  0.8469048802200797  0.7277769373651881  0.9080869141203783  1.0000
  C   C20       1.0  0.15309512062401645  0.27222306253620904  0.09191308620745062  1.0000
  C   C21       1.0  0.02922126827274981  0.22767964853620046  0.6608889428648226  1.0000
  C   C22       1.0  0.9707787315405522  0.7723203513655934  0.33911105746403264  1.0000
  C   C23       1.0  0.08416882965958637  0.261049361388478  0.557391496597871  1.0000
  C   C24       1.0  0.9158311711845096  0.7389506385129191  0.4426085037299578  1.0000
  C   C25       1.0  0.9921241457963557  0.18127540952310656  0.4478595293164455  1.0000
  C   C26       1.0  0.007875855047740509  0.8187245903782906  0.5521404710113834  1.0000
  C   C27       1.0  0.8853176193368952  0.11008255716883004  0.4930589910866281  1.0000
  C   C28       1.0  0.11468238047640694  0.8899174427329637  0.5069410092422272  1.0000
  C   C29       1.0  0.4895819143331051  0.12433385540554169  0.8488107924431395  1.0000
  C   C30       1.0  0.5104180854801972  0.8756661444962521  0.15118920788571583  1.0000
  C   C31       1.0  0.43351899564190954  0.20531989061325445  0.9074145527388572  1.0000
  C   C32       1.0  0.5664810037793616  0.7946801092695703  0.09258544666498734  1.0000
  C   C33       1.0  0.5058142028696921  0.22923592723331462  0.03352799190631328  1.0000
  C   C34       1.0  0.4941857969436101  0.7707640726684791  0.966472008422542  1.0000
  C   C35       1.0  0.6340070531170853  0.17229280939740185  0.09657586331249066  1.0000
  C   C36       1.0  0.3659929473349797  0.8277071904850263  0.9034241360903275  1.0000
  C   C37       1.0  0.6914963373786251  0.09351743234787303  0.035495534534503353  1.0000
  C   C38       1.0  0.30850366243467703  0.9064825675539209  0.9645044657943519  1.0000
  C   C39       1.0  0.830763788722444  0.03333020580766662  0.09402844360668232  1.0000
  C   C40       1.0  0.16923621172962108  0.9666697940747615  0.9059715557961359  1.0000
  N   N1        1.0  0.6026785863099059  0.3363156228990243  0.5213880490102463  1.0000
  N   N2        1.0  0.3973214145341901  0.6636843770023729  0.4786119513175825  1.0000
  N   N3        1.0  0.005107245470561612  0.6249440650317688  0.8221671704845714  1.0000
  N   N4        1.0  0.9948927539507094  0.375055934851056  0.17783282891927307  1.0000
  N   N5        1.0  0.9118604484589156  0.14388308720667858  0.6151839821423478  1.0000
  N   N6        1.0  0.08813955135438653  0.856116912695115  0.3848160181865075  1.0000
  N   N7        1.0  0.615504847258465  0.07060661298276423  0.9120830724670683  1.0000
  N   N8        1.0  0.384495153585631  0.9293933869186328  0.08791692786076047  1.0000
  O   O1        1.0  0.4692601474353463  0.3134956130514144  0.6532193629270618  1.0000
  O   O2        1.0  0.5307398520411725  0.6865043877131528  0.3467806364775286  1.0000
  O   O3        1.0  0.6883912007147255  0.3177948719111918  0.3591134871257966  1.0000
  O   O4        1.0  0.31160879909857664  0.682205127990602  0.6408865132030587  1.0000
  O   O5        1.0  0.9057050682736705  0.6469972454446882  0.7109405108953201  1.0000
  O   O6        1.0  0.09429493217839473  0.35300275443774  0.28905948850749813  1.0000
  O   O7        1.0  0.790874111574876  0.03440839136229273  0.433491932359497  1.0000
  O   O8        1.0  0.2091258882384261  0.9655916085395011  0.5665080679693582  1.0000
  O   O9        1.0  0.07832785763241429  0.2663412722354278  0.7681924415066141  1.0000
  O   O10       1.0  0.9216721421808878  0.7336587276663661  0.23180755882224097  1.0000
  O   O11       1.0  0.6657118099563967  0.9917384863533522  0.8530839550586806  1.0000
  O   O12       1.0  0.33428818985690545  0.008261513548441617  0.14691604527017468  1.0000
  O   O13       1.0  0.460167410292184  0.5052398141625437  0.8037285000180259  1.0000
  O   O14       1.0  0.5398325891290873  0.4947601857202811  0.19627149938581873  1.0000
  I   I1        1.0  0.7499945321845108  0.48262702708579475  0.61331803597155  1.0000
  I   I2        1.0  0.2500054686595852  0.5173729728156023  0.3866819643562789  1.0000
  I   I3        1.0  0.7924692873512822  0.07413938449922448  0.7266343865270023  1.0000
  I   I4        1.0  0.20753071206998913  0.9258606153836002  0.27336561287684225  1.0000
