data_image0
_chemical_formula_structural       H22C26N4O8S2I2
_chemical_formula_sum              "H22 C26 N4 O8 S2 I2"
_cell_length_a       7.186789852405679
_cell_length_b       8.719332375311707
_cell_length_c       12.78774879772615
_cell_angle_alpha    109.46640847312452
_cell_angle_beta     100.63472268522854
_cell_angle_gamma    89.42291678467647

_space_group_name_H-M_alt    "P 1"
_space_group_IT_number       1

loop_
  _space_group_symop_operation_xyz
  'x, y, z'

loop_
  _atom_site_type_symbol
  _atom_site_label
  _atom_site_symmetry_multiplicity
  _atom_site_fract_x
  _atom_site_fract_y
  _atom_site_fract_z
  _atom_site_occupancy
  H   H1        1.0  0.21349634008249033  0.052662102121558065  0.36388518293419936  1.0000
  H   H2        1.0  0.7865036590517179  0.9473378982732835  0.6361148173190874  1.0000
  H   H3        1.0  0.2063018770910757  0.049276435141803604  0.5564757347333259  1.0000
  H   H4        1.0  0.7936981220431327  0.950723565253038  0.4435242655199609  1.0000
  H   H5        1.0  0.21519049224745312  0.309056166929394  0.7167543210422546  1.0000
  H   H6        1.0  0.7848095082793444  0.6909438334558862  0.28324567921440613  1.0000
  H   H7        1.0  0.2358406675928589  0.5771487573472408  0.686656526888926  1.0000
  H   H8        1.0  0.7641593329339386  0.42285124303803934  0.3133434733677348  1.0000
  H   H9        1.0  0.5344169063935142  0.06873410437631526  0.2998276934553054  1.0000
  H   H10       1.0  0.46558309413328325  0.931265896008965  0.7001723068013553  1.0000
  H   H11       1.0  0.8675226412777848  0.1020410573107563  0.2791320928789671  1.0000
  H   H12       1.0  0.1324773589818444  0.8979589415185641  0.720867906530506  1.0000
  H   H13       1.0  0.9680843439704782  0.9318719518285927  0.09777107290903303  1.0000
  H   H14       1.0  0.03191565628936785  0.0681280481485922  0.9022289265024718  1.0000
  H   H15       1.0  0.7258478866074262  0.7372241283927207  0.9463139369422028  1.0000
  H   H16       1.0  0.2741521139193713  0.2627758719925594  0.05368606331445803  1.0000
  H   H17       1.0  0.29707624446604647  0.5982651467544928  0.9930133401551978  1.0000
  H   H18       1.0  0.7029237544012104  0.4017348532322538  0.006986659252933089  1.0000
  H   H19       1.0  0.4108302551527315  0.6111032938394306  0.8824669944647644  1.0000
  H   H20       1.0  0.5891697453740661  0.38889670654584957  0.1175330057918965  1.0000
  H   H21       1.0  0.23239179847566335  0.7465288388378138  0.9295693474718342  1.0000
  H   H22       1.0  0.7676082020509172  0.2534711603996016  0.07043065278279485  1.0000
  C   C1        1.0  0.2445046823737623  0.6097737739524343  0.4725560685827242  1.0000
  C   C2        1.0  0.755495316760446  0.39022622644240734  0.5274439316705625  1.0000
  C   C3        1.0  0.23606419407116339  0.46425839173101263  0.5088380747481057  1.0000
  C   C4        1.0  0.7639358061886828  0.5357416082461726  0.49116192466339925  1.0000
  C   C5        1.0  0.2288962173160409  0.3167536553071079  0.419815466391866  1.0000
  C   C6        1.0  0.7711037829435883  0.6832463435222126  0.5801845330176072  1.0000
  C   C7        1.0  0.21857130303817654  0.16638481488064744  0.4340892716736367  1.0000
  C   C8        1.0  0.7814286958288634  0.8336151839582345  0.5659107277324623  1.0000
  C   C9        1.0  0.21441777621390282  0.16587659515263578  0.5429826474552112  1.0000
  C   C10       1.0  0.7855822243128947  0.8341234052326444  0.45701735280144967  1.0000
  C   C11       1.0  0.2207358474138696  0.31245557457743645  0.6329388677216595  1.0000
  C   C12       1.0  0.7792641531129277  0.6875444258078436  0.3670611325350013  1.0000
  C   C13       1.0  0.23187444532283952  0.463054832258556  0.617075243506729  1.0000
  C   C14       1.0  0.7681255552037412  0.5369451669788597  0.38292475674790016  1.0000
  C   C15       1.0  0.5858235102830113  0.9987708304267301  0.22427515590549907  1.0000
  C   C16       1.0  0.4141764899768348  0.0012291695504551225  0.7757248435060058  1.0000
  C   C17       1.0  0.7699917263787714  0.014378638350339297  0.2106902894414378  1.0000
  C   C18       1.0  0.2300082724884854  0.9856213616364072  0.789309709966693  1.0000
  C   C19       1.0  0.8235057772201515  0.9204967224657755  0.11005108984517528  1.0000
  C   C20       1.0  0.1764942219140568  0.07950327792906595  0.8899489104081114  1.0000
  C   C21       1.0  0.6895221669912959  0.8115112216007121  0.02612339226194417  1.0000
  C   C22       1.0  0.3104778335355016  0.18848877878456807  0.9738766079947168  1.0000
  C   C23       1.0  0.503865706354404  0.7963435738093193  0.04082292249889257  1.0000
  C   C24       1.0  0.496134292512853  0.2036564261774271  0.9591770769092384  1.0000
  C   C25       1.0  0.3533376721691125  0.6815733138386978  0.956531845404121  1.0000
  C   C26       1.0  0.6466623283574681  0.3184266853987178  0.04346815485050811  1.0000
  N   N1        1.0  0.23860811552581934  0.5586469054005228  0.3570187771917985  1.0000
  N   N2        1.0  0.7613918850007614  0.44135309383689264  0.6429812230628306  1.0000
  N   N3        1.0  0.45736242658598314  0.8937243351107441  0.14010320412461463  1.0000
  N   N4        1.0  0.5426375722812737  0.10627566487600243  0.8598967952835161  1.0000
  O   O1        1.0  0.2546240165109373  0.7533189726584051  0.5341126511790701  1.0000
  O   O2        1.0  0.7453759840156433  0.24668102657901048  0.46588734907555895  1.0000
  O   O3        1.0  0.05151036469011285  0.30218920669215366  0.21392132279164727  1.0000
  O   O4        1.0  0.9484896355697332  0.6978107932850315  0.7860786766198578  1.0000
  O   O5        1.0  0.4007654096938992  0.3096409127174972  0.24936664583746995  1.0000
  O   O6        1.0  0.5992345908328982  0.690359087667783  0.750633354419191  1.0000
  O   O7        1.0  0.2776330291009114  0.8852335584750354  0.15501126901970222  1.0000
  O   O8        1.0  0.7223669711587176  0.11476644035428506  0.844988730389771  1.0000
  S   S1        1.0  0.22919479138275076  0.3568622893348996  0.2932830426987444  1.0000
  S   S2        1.0  0.7708052077512406  0.6431377099120773  0.7067169575525106  1.0000
  I   I1        1.0  0.2522798335090495  0.7131262117605527  0.25747916616297895  1.0000
  I   I2        1.0  0.7477201653582074  0.2868737882261939  0.742520833245152  1.0000
