data_image0
_chemical_formula_structural       H52C72N8O16S4I4
_chemical_formula_sum              "H52 C72 N8 O16 S4 I4"
_cell_length_a       12.338295045659827
_cell_length_b       9.992915366155144
_cell_length_c       15.006254988292083
_cell_angle_alpha    90.0
_cell_angle_beta     107.22551962541706
_cell_angle_gamma    90.0

_space_group_name_H-M_alt    "P 1"
_space_group_IT_number       1

loop_
  _space_group_symop_operation_xyz
  'x, y, z'

loop_
  _atom_site_type_symbol
  _atom_site_label
  _atom_site_symmetry_multiplicity
  _atom_site_fract_x
  _atom_site_fract_y
  _atom_site_fract_z
  _atom_site_occupancy
  H   H1        1.0  0.6282411623257309  0.7924728930279077  0.19612870405456595  1.0000
  H   H2        1.0  0.3717588375815518  0.29247289333588306  0.303871295886141  1.0000
  H   H3        1.0  0.3717588373304755  0.20752710635614158  0.8038712959246749  1.0000
  H   H4        1.0  0.6282411620746545  0.7075271060481662  0.6961287040930998  1.0000
  H   H5        1.0  0.6845728057677222  0.7303665759763314  0.05465342518075585  1.0000
  H   H6        1.0  0.31542719413956044  0.23036657628430673  0.44534657475995104  1.0000
  H   H7        1.0  0.3154271938884841  0.26963342340771784  0.945346574798485  1.0000
  H   H8        1.0  0.684572806328156  0.7696334230997425  0.5546534252221555  1.0000
  H   H9        1.0  0.5503353781759736  0.7591409785869915  0.8960760769188222  1.0000
  H   H10       1.0  0.44966462122915646  0.25914097889496684  0.6039239230989527  1.0000
  H   H11       1.0  0.44966462172818406  0.24085902179776675  0.10392392375809505  1.0000
  H   H12       1.0  0.5503353784270498  0.7408590214897913  0.3960760768802883  1.0000
  H   H13       1.0  0.3593092913842322  0.8566559773930836  0.8743942476368342  1.0000
  H   H14       1.0  0.6406907080208978  0.35665597670035015  0.6256057523809406  1.0000
  H   H15       1.0  0.6406907082719742  0.14334402299167445  0.12560575234240678  1.0000
  H   H16       1.0  0.3593092916353085  0.6433440226836992  0.37439424759830014  1.0000
  H   H17       1.0  0.9178177043247118  0.1205172560631194  0.15675136802572034  1.0000
  H   H18       1.0  0.08218229558257084  0.620517256755853  0.3432486319149866  1.0000
  H   H19       1.0  0.08218229533149457  0.8794827433209299  0.8432486319535206  1.0000
  H   H20       1.0  0.9178177048851455  0.3794827436289052  0.6567513680671201  1.0000
  H   H21       1.0  0.8042211687982795  0.03513085992792443  0.25619416875949846  1.0000
  H   H22       1.0  0.19577883110900307  0.5351308606206581  0.2438058311812085  1.0000
  H   H23       1.0  0.19577883166943685  0.9648691394561248  0.7438058312226082  1.0000
  H   H24       1.0  0.8042211685472033  0.4648691397641002  0.7561941687980325  1.0000
  H   H25       1.0  0.0032906755296774563  0.2903647327813215  0.47793223705763754  1.0000
  H   H26       1.0  0.9967093243776052  0.7903647324733462  0.02206776288306945  1.0000
  H   H27       1.0  0.9967093241265289  0.7096352676034368  0.5220677629216034  1.0000
  H   H28       1.0  0.003290676090111201  0.2096352669107031  0.9779322370990373  1.0000
  H   H29       1.0  0.11477426424302209  0.35860906539217496  0.37254740157476457  1.0000
  H   H30       1.0  0.8852257356642607  0.8586090660849086  0.1274525983659424  1.0000
  H   H31       1.0  0.8852257354131843  0.6413909339918743  0.6274525984044763  1.0000
  H   H32       1.0  0.11477426399194575  0.14139093429984967  0.8725474016132985  1.0000
  H   H33       1.0  0.6685361630480126  0.0822844985543365  0.3274624128257859  1.0000
  H   H34       1.0  0.33146383685926994  0.5822844982463611  0.172537587114921  1.0000
  H   H35       1.0  0.33146383741970364  0.9177155018304217  0.6725375871563207  1.0000
  H   H36       1.0  0.6685361627969364  0.41771550113768807  0.8274624128643199  1.0000
  H   H37       1.0  0.5593163197556131  0.01336970594712488  0.4317720491204249  1.0000
  H   H38       1.0  0.4406836801516695  0.5133697056391495  0.06822795082028207  1.0000
  H   H39       1.0  0.4406836799005931  0.9866302934369244  0.5682279508588159  1.0000
  H   H40       1.0  0.5593163203160469  0.4866302937448998  0.9317720491618247  1.0000
  H   H41       1.0  0.6506939903608895  0.007830283469128022  0.6048459407423893  1.0000
  H   H42       1.0  0.3493060098557506  0.5078302831611526  0.8951540592782513  1.0000
  H   H43       1.0  0.34930601010682694  0.9921697159149213  0.39515405923971736  1.0000
  H   H44       1.0  0.6506939906119659  0.4921697162228966  0.10484594070385538  1.0000
  H   H45       1.0  0.8548230148851433  0.06277083784022329  0.66981047756365  1.0000
  H   H46       1.0  0.14517698533149678  0.562770838532957  0.8301895224569907  1.0000
  H   H47       1.0  0.14517698477106306  0.937229161543826  0.330189522415591  1.0000
  H   H48       1.0  0.8548230151362195  0.4372291618518014  0.1698104775251159  1.0000
  H   H49       1.0  0.9671116571927661  0.1282833090272865  0.5655659272431803  1.0000
  H   H50       1.0  0.032888343023873924  0.6282833087193112  0.9344340727774603  1.0000
  H   H51       1.0  0.03288834246344022  0.8717166913574717  0.43443407273606055  1.0000
  H   H52       1.0  0.9671116574438424  0.3717166906647381  0.06556592720464641  1.0000
  C   C1        1.0  0.2818067265734669  0.9525278360945765  0.024546491387326296  1.0000
  C   C2        1.0  0.7181932733338158  0.45252783640255173  0.47545350855338064  1.0000
  C   C3        1.0  0.7181932738942495  0.04747216429018188  0.9754535085947804  1.0000
  C   C4        1.0  0.28180672632239057  0.5474721639822065  0.5245464914258603  1.0000
  C   C5        1.0  0.38770760733950516  0.8828980079108402  0.022616272154494552  1.0000
  C   C6        1.0  0.6122923925677775  0.38289800821881553  0.47738372778621235  1.0000
  C   C7        1.0  0.6122923931282113  0.11710199147320913  0.9773837278276122  1.0000
  C   C8        1.0  0.3877076070884288  0.6171019921659426  0.5226162721930284  1.0000
  C   C9        1.0  0.463510791621597  0.8632862156741362  0.11159492228534096  1.0000
  C   C10       1.0  0.5364892085336369  0.36328621598211164  0.38840507835304233  1.0000
  C   C11       1.0  0.5364892080346093  0.13671378370991297  0.8884050776939  1.0000
  C   C12       1.0  0.46351079218203084  0.6367137844026466  0.6115949223267407  1.0000
  C   C13       1.0  0.5703812960041565  0.8079005659692946  0.12626607234891007  1.0000
  C   C14       1.0  0.4296187039031262  0.30790056527656084  0.3737339275917969  1.0000
  C   C15       1.0  0.42961870365204985  0.19209943441546376  0.8737339276303309  1.0000
  C   C16       1.0  0.57038129575308  0.6920994341074884  0.626266072387444  1.0000
  C   C17       1.0  0.6008641070550726  0.7723326143779309  0.04661291409565154  1.0000
  C   C18       1.0  0.39913589285221  0.2723326146859062  0.4533870858450554  1.0000
  C   C19       1.0  0.3991358934126437  0.22766738500611844  0.9533870858864552  1.0000
  C   C20       1.0  0.6008641068039963  0.727667385698852  0.5466129141341854  1.0000
  C   C21       1.0  0.5255750657199942  0.7888018712433897  0.9570859353252865  1.0000
  C   C22       1.0  0.47442493424869453  0.2888018715513651  0.5429140639976778  1.0000
  C   C23       1.0  0.4744249347477222  0.21119812914136854  0.04291406465682025  1.0000
  C   C24       1.0  0.5255750654075118  0.7111981288333932  0.4570859359815631  1.0000
  C   C25       1.0  0.4178703580334893  0.8440140470483253  0.9441327873057285  1.0000
  C   C26       1.0  0.5821296421831507  0.3440140463555917  0.5558672127149122  1.0000
  C   C27       1.0  0.5821296424342272  0.15598595333643295  0.055867212676378265  1.0000
  C   C28       1.0  0.41787035772100695  0.6559859530284576  0.44413278796200506  1.0000
  C   C29       1.0  0.9336450381907114  0.15245617261603728  0.22879036303088593  1.0000
  C   C30       1.0  0.06635496171657126  0.6524561723080619  0.27120963690982103  1.0000
  C   C31       1.0  0.0663549614654949  0.847543827768721  0.7712096369483549  1.0000
  C   C32       1.0  0.933645038751145  0.34754382707598735  0.7287903630722856  1.0000
  C   C33       1.0  0.8703106441326378  0.10856380848319065  0.285000152936406  1.0000
  C   C34       1.0  0.12968935577464494  0.6085638081752154  0.21499984700430103  1.0000
  C   C35       1.0  0.12968935552356856  0.8914361919015675  0.7149998470428349  1.0000
  C   C36       1.0  0.8703106446930715  0.391436191208834  0.7850001529778056  1.0000
  C   C37       1.0  0.8925389251332864  0.15483878961293884  0.37716831638004295  1.0000
  C   C38       1.0  0.10746107477399625  0.6548387893049634  0.12283168356066407  1.0000
  C   C39       1.0  0.10746107452291989  0.8451612107718194  0.6228316835991979  1.0000
  C   C40       1.0  0.8925389256937201  0.3451612100790858  0.8771683164214426  1.0000
  C   C41       1.0  0.981885695188219  0.2469899883630898  0.4083889167564432  1.0000
  C   C42       1.0  0.018114304719063584  0.7469899880551144  0.0916110831842638  1.0000
  C   C43       1.0  0.018114304467987258  0.7530100120216685  0.5916110832227978  1.0000
  C   C44       1.0  0.9818856957486529  0.25301001132893486  0.9083889167978431  1.0000
  C   C45       1.0  0.04499905643152943  0.28763099602892966  0.3512733994419628  1.0000
  C   C46       1.0  0.9550009434757532  0.7876309957209543  0.14872660049874417  1.0000
  C   C47       1.0  0.955000944036187  0.7123690043558286  0.648726600540144  1.0000
  C   C48       1.0  0.044999056180453134  0.21236900366309502  0.8512733994804969  1.0000
  C   C49       1.0  0.8263953214004437  0.1101548356676946  0.43855480452251067  1.0000
  C   C50       1.0  0.1736046785068389  0.6101548353597191  0.061445195418196305  1.0000
  C   C51       1.0  0.1736046782557626  0.8898451647170637  0.5614451954567303  1.0000
  C   C52       1.0  0.8263953211493674  0.389845165025039  0.9385548045610447  1.0000
  C   C53       1.0  0.7113781152314022  0.07474186787667869  0.4019832760002895  1.0000
  C   C54       1.0  0.2886218846758805  0.5747418685694123  0.09801672394041752  1.0000
  C   C55       1.0  0.2886218844248042  0.9252581315073705  0.5980167239789514  1.0000
  C   C56       1.0  0.7113781149803259  0.425258131815346  0.9019832760388234  1.0000
  C   C57       1.0  0.6488622832785145  0.03754768716152606  0.4614745217647516  1.0000
  C   C58       1.0  0.35113771744027816  0.5375476878542597  0.03852547817882109  1.0000
  C   C59       1.0  0.35113771718920184  0.9624523122225233  0.538525478217355  1.0000
  C   C60       1.0  0.6488622830274383  0.4624523125304985  0.9614745218032856  1.0000
  C   C61       1.0  0.6998448804742383  0.034479882734418696  0.5579222678187746  1.0000
  C   C62       1.0  0.3001551197424018  0.5344798824264433  0.942077732201866  1.0000
  C   C63       1.0  0.300155119181968  0.9655201176503396  0.44207773216046625  1.0000
  C   C64       1.0  0.6998448807253147  0.4655201169576059  0.0579222677802407  1.0000
  C   C65       1.0  0.8145467483863008  0.06692895571448558  0.5946748856830393  1.0000
  C   C66       1.0  0.18545325101882928  0.5669289564072192  0.9053251143347357  1.0000
  C   C67       1.0  0.1854532512699056  0.9330710436695637  0.40532511429620177  1.0000
  C   C68       1.0  0.814546748637377  0.43307104397753904  0.09467488564450517  1.0000
  C   C69       1.0  0.8775145487093888  0.10453115849833394  0.5356041658477156  1.0000
  C   C70       1.0  0.12248545069574117  0.6045311581903586  0.9643958341700591  1.0000
  C   C71       1.0  0.12248545094681754  0.8954688408857153  0.4643958341315253  1.0000
  C   C72       1.0  0.8775145489604652  0.3954688411936907  0.03560416580918171  1.0000
  N   N1        1.0  0.28482537094822713  0.9793044443410798  0.11543145333021114  1.0000
  N   N2        1.0  0.7151746289590556  0.47930444464905503  0.3845685466104959  1.0000
  N   N3        1.0  0.7151746287079792  0.020695555042969552  0.8845685466490298  1.0000
  N   N4        1.0  0.2848253715086609  0.5206955557357031  0.6154314533716109  1.0000
  N   N5        1.0  0.01970871829913256  0.24076981559844088  0.26267264059985135  1.0000
  N   N6        1.0  0.9802912824196601  0.7407698152904655  0.23732735934372137  1.0000
  N   N7        1.0  0.9802912821685839  0.7592301847863173  0.7373273593822554  1.0000
  N   N8        1.0  0.01970871804805625  0.25923018509429274  0.7626726406383854  1.0000
  O   O1        1.0  0.2030047020849005  0.9854449696784428  0.9554807230225568  1.0000
  O   O2        1.0  0.7969952981317396  0.4854449699864181  0.5445192769980839  1.0000
  O   O3        1.0  0.7969952975713058  0.014555029705606523  0.04451927695668417  1.0000
  O   O4        1.0  0.20300470233597684  0.5145550293976312  0.4554807229840228  1.0000
  O   O5        1.0  0.46655892008982675  0.04037666538901575  0.24476641054483536  1.0000
  O   O6        1.0  0.5334410798174558  0.5403766650810403  0.2552335893958716  1.0000
  O   O7        1.0  0.5334410803778896  0.9596233349957425  0.7552335894372714  1.0000
  O   O8        1.0  0.4665589198387504  0.4596233343030089  0.7447664105833692  1.0000
  O   O9        1.0  0.3745776099872691  0.822884967869379  0.25231388482013223  1.0000
  O   O10       1.0  0.6254223899200135  0.32288496817735446  0.24768611512057476  1.0000
  O   O11       1.0  0.6254223904804472  0.17711503251537913  0.7476861151619745  1.0000
  O   O12       1.0  0.3745776097361928  0.6771150322074038  0.7523138848586662  1.0000
  O   O13       1.0  0.08011519111803146  0.2876926567132667  0.20790860705420808  1.0000
  O   O14       1.0  0.9198848090372025  0.7876926564052914  0.2920913935841752  1.0000
  O   O15       1.0  0.9198848085381749  0.7123073436714915  0.7920913929250328  1.0000
  O   O16       1.0  0.08011519167846524  0.21230734397946685  0.7079086070956079  1.0000
  S   S1        1.0  0.4032693789386506  0.9266299874170515  0.19609074836827495  1.0000
  S   S2        1.0  0.5967306209686319  0.42662998772502675  0.30390925157243204  1.0000
  S   S3        1.0  0.5967306215290658  0.0733700119669979  0.8039092516138318  1.0000
  S   S4        1.0  0.40326937868757434  0.5733700116590225  0.6960907484068088  1.0000
  I   I1        1.0  0.18043926981611172  0.12565559238626153  0.15765368246194147  1.0000
  I   I2        1.0  0.8195607300911708  0.6256555920782861  0.3423463174787655  1.0000
  I   I3        1.0  0.8195607298400945  0.8743444079984968  0.8423463175172995  1.0000
  I   I4        1.0  0.1804392703765455  0.3743444083064721  0.6576536825033412  1.0000
