data_image0
_chemical_formula_structural       H96C88O36
_chemical_formula_sum              "H96 C88 O36"
_cell_length_a       11.623513372465647
_cell_length_b       12.82477173013725
_cell_length_c       14.874699524207779
_cell_angle_alpha    90.0
_cell_angle_beta     90.0
_cell_angle_gamma    90.0

_space_group_name_H-M_alt    "P 1"
_space_group_IT_number       1

loop_
  _space_group_symop_operation_xyz
  'x, y, z'

loop_
  _atom_site_type_symbol
  _atom_site_label
  _atom_site_symmetry_multiplicity
  _atom_site_fract_x
  _atom_site_fract_y
  _atom_site_fract_z
  _atom_site_occupancy
  H   H1        1.0  0.5749750583873863  0.6454210043012918  0.6043585711005335  1.0000
  H   H2        1.0  0.9250249417245876  0.35457899568800616  0.10435857124197438  1.0000
  H   H3        1.0  0.07497505806328658  0.8545789960725256  0.39564142928886725  1.0000
  H   H4        1.0  0.42502494226081305  0.14542100391677232  0.8956414291474264  1.0000
  H   H5        1.0  0.7445136124245962  0.4423161955132352  0.9978966281532704  1.0000
  H   H6        1.0  0.7554863868270525  0.5576838044760628  0.49789662762242887  1.0000
  H   H7        1.0  0.24451361296082166  0.05768380487128427  0.002103372236130352  1.0000
  H   H8        1.0  0.255486387363278  0.9423161951180138  0.5021033720946895  1.0000
  H   H9        1.0  0.7448927465003946  0.6188153128176627  0.808069065223028  1.0000
  H   H10       1.0  0.7551072536115793  0.3811846871716353  0.30806906469218637  1.0000
  H   H11       1.0  0.24489274703662003  0.8811846867764138  0.19193093516637283  1.0000
  H   H12       1.0  0.2551072532874796  0.11881531321288417  0.691930935024932  1.0000
  H   H13       1.0  0.1462658084110209  0.7067433456691239  0.7218221741236713  1.0000
  H   H14       1.0  0.3537341910527536  0.29325665432017406  0.22182217359282974  1.0000
  H   H15       1.0  0.6462658087351205  0.7932566539249525  0.27817782626572946  1.0000
  H   H16       1.0  0.8537341913768531  0.20674334606434544  0.7781778261242885  1.0000
  H   H17       1.0  0.3457592701291382  0.639141355688853  0.7140565611234214  1.0000
  H   H18       1.0  0.1542407301949614  0.3608586443004449  0.21405656059257974  1.0000
  H   H19       1.0  0.8457592695929128  0.8608586446849644  0.28594343926597937  1.0000
  H   H20       1.0  0.6542407305190611  0.13914135530433355  0.7859434391245386  1.0000
  H   H21       1.0  0.38328603815723505  0.44897823767646716  0.737953061985272  1.0000
  H   H22       1.0  0.11671396216686458  0.5510217623128308  0.23795306212671286  1.0000
  H   H23       1.0  0.8832860384813347  0.051021761928311316  0.2620469377318463  1.0000
  H   H24       1.0  0.6167139616306391  0.9489782380609867  0.762046938262688  1.0000
  H   H25       1.0  0.21960721067751704  0.32721709113454056  0.7610245633249454  1.0000
  H   H26       1.0  0.2803927887862575  0.6727829088547574  0.26102456279410385  1.0000
  H   H27       1.0  0.7196072110016166  0.17278290847023797  0.23897543706445531  1.0000
  H   H28       1.0  0.7803927891103571  0.82721709151906  0.7389754369230145  1.0000
  H   H29       1.0  0.020713627823609367  0.3934183614468125  0.763400886284779  1.0000
  H   H30       1.0  0.4792863725004903  0.6065816385424855  0.26340088642621984  1.0000
  H   H31       1.0  0.5207136281477089  0.106581638157966  0.23659911343233933  1.0000
  H   H32       1.0  0.9792863719642648  0.8934183618313319  0.7365991132908986  1.0000
  H   H33       1.0  0.593734197987683  0.48800639821859976  0.796979337344388  1.0000
  H   H34       1.0  0.9062658021242908  0.5119936017706982  0.2969793374858289  1.0000
  H   H35       1.0  0.09373419852390848  0.011993602165919711  0.2030206623727303  1.0000
  H   H36       1.0  0.4062658018001911  0.9880063978233783  0.7030206622312896  1.0000
  H   H37       1.0  0.4353993872445177  0.19256481300143735  0.6536822719797334  1.0000
  H   H38       1.0  0.06460061307958194  0.8074351869878605  0.1536822721211742  1.0000
  H   H39       1.0  0.9353993867082921  0.3074351866033411  0.3463177284096675  1.0000
  H   H40       1.0  0.5646006134036816  0.6925648133859568  0.8463177282682267  1.0000
  H   H41       1.0  0.43536865385190626  0.07555491437894232  0.518120343705596  1.0000
  H   H42       1.0  0.06463134647219337  0.9244450856103557  0.018120343847036823  1.0000
  H   H43       1.0  0.9353686533156808  0.4244450852258362  0.4818796560115224  1.0000
  H   H44       1.0  0.564631346796293  0.5755549147634618  0.9818796558700815  1.0000
  H   H45       1.0  0.6011403614463086  0.08181996702008903  0.4119711729320712  1.0000
  H   H46       1.0  0.8988596386656652  0.918180032969209  0.9119711727906303  1.0000
  H   H47       1.0  0.101140361982534  0.4181800325846895  0.5880288274573297  1.0000
  H   H48       1.0  0.3988596383415657  0.5818199674046085  0.088028826926488  1.0000
  H   H49       1.0  0.7635424355448024  0.2028203210734389  0.43909149152025356  1.0000
  H   H50       1.0  0.7364575645671715  0.7971796789158591  0.9390914913788128  1.0000
  H   H51       1.0  0.26354243522070275  0.2971796793110806  0.5609085081968648  1.0000
  H   H52       1.0  0.23645756510339688  0.7028203206782174  0.06090850833830561  1.0000
  H   H53       1.0  0.7626921831569649  0.31836429730794935  0.5739809389833519  1.0000
  H   H54       1.0  0.7373078169550089  0.6816357026813485  0.0739809391247928  1.0000
  H   H55       1.0  0.2626921828328653  0.1816357030765701  0.4260190614060489  1.0000
  H   H56       1.0  0.2373078166309093  0.8183642969127279  0.926019061264608  1.0000
  H   H57       1.0  0.6056814755061105  0.9186014502165272  0.5089610010393275  1.0000
  H   H58       1.0  0.8943185237455382  0.08139854977277074  0.008961001180768329  1.0000
  H   H59       1.0  0.10568147604233596  0.5813985501572903  0.4910389986777909  1.0000
  H   H60       1.0  0.39431852428176367  0.41860144983200775  0.99103899853635  1.0000
  H   H61       1.0  0.6082093678101366  0.8378627375292085  0.6053810966295533  1.0000
  H   H62       1.0  0.8917906323018372  0.16213726246008953  0.10538109677099411  1.0000
  H   H63       1.0  0.10820936748603696  0.662137262064868  0.3946189030875651  1.0000
  H   H64       1.0  0.3917906319777376  0.33786273792442995  0.8946189036184068  1.0000
  H   H65       1.0  0.6932407364100371  0.8048872726321444  0.5088128131719751  1.0000
  H   H66       1.0  0.8067592637019366  0.19511272735715354  0.008812813313415937  1.0000
  H   H67       1.0  0.19324073694626262  0.695112727741673  0.4911871865451432  1.0000
  H   H68       1.0  0.306759263377837  0.30488727224762496  0.9911871864037024  1.0000
  H   H69       1.0  0.5108300769081899  0.7800558591223312  0.4187028147939483  1.0000
  H   H70       1.0  0.9891699223434589  0.2199441408669667  0.9187028146525075  1.0000
  H   H71       1.0  0.010830077444415316  0.7199441404717453  0.5812971849231701  1.0000
  H   H72       1.0  0.4891699228796843  0.28005585951755274  0.08129718506461094  1.0000
  H   H73       1.0  0.42858208618753174  0.8020955972126228  0.5180202031953574  1.0000
  H   H74       1.0  0.07141791413656787  0.1979044027766752  0.018020203336798223  1.0000
  H   H75       1.0  0.9285820865116313  0.6979044023814537  0.48197979652176093  1.0000
  H   H76       1.0  0.5714179136003424  0.30209559760784427  0.9819797970526026  1.0000
  H   H77       1.0  0.4128947536094198  0.6175593770131953  0.41873993083781197  1.0000
  H   H78       1.0  0.0871052467146798  0.38244062297610265  0.918739930696371  1.0000
  H   H79       1.0  0.9128947530731943  0.8824406225808812  0.5812600688793065  1.0000
  H   H80       1.0  0.5871052461784543  0.11755937740841682  0.08126006902074723  1.0000
  H   H81       1.0  0.35354294767144817  0.6272429365036277  0.5287230513262328  1.0000
  H   H82       1.0  0.1464570526526515  0.3727570634856702  0.028723051467673597  1.0000
  H   H83       1.0  0.8535429479955478  0.8727570638701897  0.4712769490631681  1.0000
  H   H84       1.0  0.646457052116426  0.12724293611910828  0.9712769489217272  1.0000
  H   H85       1.0  0.3883250292198466  0.4403545130342496  0.47935701749106463  1.0000
  H   H86       1.0  0.11167497024392796  0.5596454869550483  0.9793570173496238  1.0000
  H   H87       1.0  0.8883250295439462  0.05964548657052889  0.5206429822260537  1.0000
  H   H88       1.0  0.6116749705680277  0.9403545134187691  0.0206429823674945  1.0000
  H   H89       1.0  0.5382318959446346  0.4668792401138449  0.47220850670421144  1.0000
  H   H90       1.0  0.9617681041673392  0.533120759875453  0.972208507235053  1.0000
  H   H91       1.0  0.038231896480860124  0.03312076027067455  0.527791493012907  1.0000
  H   H92       1.0  0.46176810384323946  0.9668792397186234  0.027791493154347733  1.0000
  H   H93       1.0  0.46598471360910443  0.4717554836303703  0.5781893426487923  1.0000
  H   H94       1.0  0.034015285854670146  0.5282445163589277  0.07818934211795066  1.0000
  H   H95       1.0  0.965984713933204  0.02824451675414915  0.4218106577406085  1.0000
  H   H96       1.0  0.5340152861787698  0.9717554832351488  0.9218106575991677  1.0000
  C   C1        1.0  0.714501412255724  0.593090345002078  0.6662622773570163  1.0000
  C   C2        1.0  0.7854985878562496  0.4069096549872199  0.16626227749845698  1.0000
  C   C3        1.0  0.21450141193162453  0.9069096553717394  0.3337377223601022  1.0000
  C   C4        1.0  0.2854985883924751  0.0930903446175586  0.8337377222186613  1.0000
  C   C5        1.0  0.7555387178203167  0.5556987336665625  0.758725857395165  1.0000
  C   C6        1.0  0.7444612822916572  0.4443012663227355  0.2587258575366058  1.0000
  C   C7        1.0  0.25553871749621704  0.9443012659275141  0.24127414232195338  1.0000
  C   C8        1.0  0.2444612819675575  0.05569873406178399  0.741274142852795  1.0000
  C   C9        1.0  0.9534059578106061  0.5984770708989343  0.7491845023063429  1.0000
  C   C10       1.0  0.5465940423013675  0.40152292909036363  0.24918450244778367  1.0000
  C   C11       1.0  0.4534059583468316  0.9015229294748831  0.2508154974107755  1.0000
  C   C12       1.0  0.04659404197726798  0.09847707051441483  0.7508154972693346  1.0000
  C   C13       1.0  0.07095595484526444  0.5549853930946986  0.7451359405251792  1.0000
  C   C14       1.0  0.4290440454788351  0.4450146068945994  0.24513594066662006  1.0000
  C   C15       1.0  0.570955954309039  0.9450146064993779  0.25486405986422156  1.0000
  C   C16       1.0  0.9290440458029349  0.05498539348992009  0.7548640597227807  1.0000
  C   C17       1.0  0.16283456983699476  0.6238931840944641  0.7306789876536252  1.0000
  C   C18       1.0  0.33716542962677976  0.3761068158948338  0.23067898712278348  1.0000
  C   C19       1.0  0.6628345701610944  0.8761068162793533  0.2693210127357757  1.0000
  C   C20       1.0  0.8371654299508795  0.1238931837099447  0.7693210125943348  1.0000
  C   C21       1.0  0.27479984129122575  0.5857136086366513  0.7266018760520562  1.0000
  C   C22       1.0  0.22520015903287388  0.4142863913526466  0.22660187619349698  1.0000
  C   C23       1.0  0.7747998416153253  0.9142863909574251  0.27339812366506216  1.0000
  C   C24       1.0  0.7252001584966485  0.08571360903187286  0.7733981235236214  1.0000
  C   C25       1.0  0.29582908108880934  0.4793594825203339  0.7388551151647774  1.0000
  C   C26       1.0  0.20417091837496518  0.5206405174689641  0.2388551153062183  1.0000
  C   C27       1.0  0.795829081412909  0.020640517084444594  0.26114488455234086  1.0000
  C   C28       1.0  0.7041709186990648  0.9793594829048534  0.7611448850831825  1.0000
  C   C29       1.0  0.20443519303113555  0.41041291344245  0.7526620871755911  1.0000
  C   C30       1.0  0.2955648072929641  0.5895870865468479  0.2526620866447495  1.0000
  C   C31       1.0  0.70443519249491  0.08958708616232845  0.24733791321380968  1.0000
  C   C32       1.0  0.7955648076170636  0.9104129138269695  0.7473379130723689  1.0000
  C   C33       1.0  0.09188509237921096  0.44766199514558985  0.7548670439847437  1.0000
  C   C34       1.0  0.40811490708456355  0.5523380048437081  0.25486704412618455  1.0000
  C   C35       1.0  0.5918850927033106  0.052338005238929626  0.24513295640465713  1.0000
  C   C36       1.0  0.9081149074086633  0.9476619947503683  0.7451329562632163  1.0000
  C   C37       1.0  0.6827651094547278  0.46203420495006237  0.7853991820800971  1.0000
  C   C38       1.0  0.817234890657246  0.5379657950392356  0.2853991815492555  1.0000
  C   C39       1.0  0.18276510913062818  0.037965795434457154  0.21460081830930372  1.0000
  C   C40       1.0  0.3172348911934715  0.9620342045548408  0.7146008181678628  1.0000
  C   C41       1.0  0.7233455307856272  0.40904139585366783  0.8717947773597567  1.0000
  C   C42       1.0  0.7766544693263465  0.5909586041356302  0.3717947775011975  1.0000
  C   C43       1.0  0.22334553132185272  0.09095860453085161  0.12820522302964416  1.0000
  C   C44       1.0  0.27665446900224694  0.9090413954584464  0.6282052228882034  1.0000
  C   C45       1.0  0.5921941180285198  0.3275444716203962  0.7024366403499828  1.0000
  C   C46       1.0  0.9078058820834539  0.6724555283689018  0.20243664049142363  1.0000
  C   C47       1.0  0.0921941177044202  0.1724555287641233  0.2975633600394181  1.0000
  C   C48       1.0  0.40780588175935434  0.8275444712251746  0.7975633598979772  1.0000
  C   C49       1.0  0.5982037441855707  0.2615514217783354  0.6212655230420312  1.0000
  C   C50       1.0  0.9017962550660781  0.7384485782109627  0.12126552251118962  1.0000
  C   C51       1.0  0.09820374472179613  0.2384485786061841  0.37873447734736954  1.0000
  C   C52       1.0  0.4017962556023035  0.7615514221628549  0.8787344772059287  1.0000
  C   C53       1.0  0.505875189504143  0.1935240690614178  0.605354432561526  1.0000
  C   C54       1.0  0.9941248106078309  0.8064759309278802  0.10535443270296674  1.0000
  C   C55       1.0  0.005875189180043406  0.30647593132310164  0.3946455678278749  1.0000
  C   C56       1.0  0.49412481114405626  0.6935240686661962  0.8946455676864341  1.0000
  C   C57       1.0  0.5067280684644309  0.12889733203713782  0.5302209215832917  1.0000
  C   C58       1.0  0.9932719316475429  0.8711026679521601  0.030220921724732563  1.0000
  C   C59       1.0  0.006728068140331218  0.3711026683473816  0.46977907813382663  1.0000
  C   C60       1.0  0.4932719313234434  0.6288973316419163  0.9697790786646682  1.0000
  C   C61       1.0  0.599900663126338  0.13230000156750094  0.4708296257414989  1.0000
  C   C62       1.0  0.9000993361253107  0.8676999984217971  0.970829625600058  1.0000
  C   C63       1.0  0.09990066366256352  0.36769999881701854  0.529170374647902  1.0000
  C   C64       1.0  0.4000993366615361  0.6323000011722795  0.029170374117060315  1.0000
  C   C65       1.0  0.6915452516311678  0.2005585576198379  0.4860503473185324  1.0000
  C   C66       1.0  0.808454747620481  0.7994414423694601  0.9860503478493741  1.0000
  C   C67       1.0  0.19154525216739324  0.2994414427646816  0.5139496523985859  1.0000
  C   C68       1.0  0.30845474815670637  0.7005585572246164  0.013949652540026766  1.0000
  C   C69       1.0  0.6913437247842552  0.2653009154154814  0.5612931949591545  1.0000
  C   C70       1.0  0.8086562753277187  0.7346990845738166  0.061293194428312846  1.0000
  C   C71       1.0  0.19134372446015552  0.23469908418929708  0.43870680543024637  1.0000
  C   C72       1.0  0.30865627500361903  0.7653009158000008  0.9387068052888055  1.0000
  C   C73       1.0  0.6110781441371799  0.8373704987484459  0.5317249257457686  1.0000
  C   C74       1.0  0.8889218559747939  0.16262950202059298  0.03172492521492686  1.0000
  C   C75       1.0  0.11107814467340527  0.6626295016253715  0.46827507464363227  1.0000
  C   C76       1.0  0.38892185565069437  0.3373704983639265  0.9682750745021915  1.0000
  C   C77       1.0  0.5124544325909325  0.7756388432726937  0.4925578777625906  1.0000
  C   C78       1.0  0.9875455675210413  0.22436115671660425  0.9925578776211498  1.0000
  C   C79       1.0  0.012454432266832913  0.7243611571011237  0.5074421226268102  1.0000
  C   C80       1.0  0.4875455671969416  0.2756388428881742  0.0074421220959685775  1.0000
  C   C81       1.0  0.4297778950238622  0.6026029946279046  0.49029027699895117  1.0000
  C   C82       1.0  0.07022210530023737  0.3973970053613934  0.9902902768575104  1.0000
  C   C83       1.0  0.9297778944876368  0.8973970049661719  0.5097097233904496  1.0000
  C   C84       1.0  0.570222105624337  0.10260299502312606  0.009709722859607965  1.0000
  C   C85       1.0  0.4579927178137493  0.4889688878643993  0.5061901679254939  1.0000
  C   C86       1.0  0.04200728251035038  0.5110311121248987  0.006190168066934715  1.0000
  C   C87       1.0  0.9579927172775238  0.011031112520120151  0.4938098317916244  1.0000
  C   C88       1.0  0.542007281974125  0.9889688874691779  0.9938098316501837  1.0000
  O   O1        1.0  0.7774702373042509  0.5884228701136686  0.5996363520139775  1.0000
  O   O2        1.0  0.722529762807723  0.4115771298756294  0.09963635215541834  1.0000
  O   O3        1.0  0.2774702369801512  0.9115771294804079  0.4003636477031408  1.0000
  O   O4        1.0  0.22252976248362333  0.08842287050889006  0.9003636475617001  1.0000
  O   O5        1.0  0.6073354461588687  0.6247335366735806  0.6688005282936859  1.0000
  O   O6        1.0  0.8926645539531052  0.3752664640954584  0.16880052843512666  1.0000
  O   O7        1.0  0.10733544583476903  0.8752664637002369  0.33119947209571504  1.0000
  O   O8        1.0  0.39266455448933063  0.12473353628906111  0.8311994719542742  1.0000
  O   O9        1.0  0.7384209907076756  0.31524510806686556  0.8784313537718947  1.0000
  O   O10       1.0  0.7615790094042981  0.6847548919224324  0.37843135391333566  1.0000
  O   O11       1.0  0.23842099038357606  0.18475489231765393  0.12156864661750598  1.0000
  O   O12       1.0  0.2615790090801985  0.815245107671644  0.6215686464760651  1.0000
  O   O13       1.0  0.7334612123555844  0.4787423690023286  0.9378023365983217  1.0000
  O   O14       1.0  0.7665387877563895  0.5212576309869694  0.43780233673976254  1.0000
  O   O15       1.0  0.23346121203148468  0.021257631382190875  0.062197663118796626  1.0000
  O   O16       1.0  0.26653878743228987  0.9787423686071072  0.5621976629773558  1.0000
  O   O17       1.0  0.8721695011780708  0.5215670353244107  0.7561649841527841  1.0000
  O   O18       1.0  0.627830498933903  0.4784329646648872  0.2561649842942249  1.0000
  O   O19       1.0  0.37216950085397127  0.9784329650494067  0.2438350162366168  1.0000
  O   O20       1.0  0.1278304986098033  0.021567034939891278  0.743835016095176  1.0000
  O   O21       1.0  0.9282106050273644  0.6911726326613641  0.7473129471899054  1.0000
  O   O22       1.0  0.5717893950846094  0.3088273673279339  0.24731294733134626  1.0000
  O   O23       1.0  0.4282106047032648  0.8088273669327124  0.2526870525272129  1.0000
  O   O24       1.0  0.07178939562083479  0.19117263305658552  0.7526870523857722  1.0000
  O   O25       1.0  0.686109630061732  0.3907264359508699  0.7114230874229107  1.0000
  O   O26       1.0  0.8138903691899168  0.609273564038428  0.21142308756435155  1.0000
  O   O27       1.0  0.1861096305979574  0.10927356365390857  0.28857691229420757  1.0000
  O   O28       1.0  0.3138903697261422  0.8907264363353894  0.7885769128250493  1.0000
  O   O29       1.0  0.5121747727414674  0.3287090186637485  0.7560332416596459  1.0000
  O   O30       1.0  0.9878252265101813  0.6712909813255495  0.2560332411288042  1.0000
  O   O31       1.0  0.012174773277692827  0.17129098172077095  0.24396675872975496  1.0000
  O   O32       1.0  0.4878252270464068  0.8287090182685269  0.7439667585883142  1.0000
  O   O33       1.0  0.5267495922965691  0.6665534498295912  0.5167809559776236  1.0000
  O   O34       1.0  0.9732504078154045  0.3334465501597067  0.016780956119064477  1.0000
  O   O35       1.0  0.02674959197246959  0.8334465497644852  0.4832190437394947  1.0000
  O   O36       1.0  0.473250407491305  0.16655345022481272  0.9832190442703364  1.0000
