data_image0
_chemical_formula_structural       H48C24N16Br8
_chemical_formula_sum              "H48 C24 N16 Br8"
_cell_length_a       5.878315528031458
_cell_length_b       13.72369631886094
_cell_length_c       11.84596365159737
_cell_angle_alpha    90.0
_cell_angle_beta     99.07910708526411
_cell_angle_gamma    90.0

_space_group_name_H-M_alt    "P 1"
_space_group_IT_number       1

loop_
  _space_group_symop_operation_xyz
  'x, y, z'

loop_
  _atom_site_type_symbol
  _atom_site_label
  _atom_site_symmetry_multiplicity
  _atom_site_fract_x
  _atom_site_fract_y
  _atom_site_fract_z
  _atom_site_occupancy
  H   H1        1.0  0.5174948766180799  0.3655693323018973  0.3629307577577966  1.0000
  H   H2        1.0  0.4825051227008156  0.865569332343397  0.13706924288293018  1.0000
  H   H3        1.0  0.48250512295013687  0.6344306677811021  0.6370692428250623  1.0000
  H   H4        1.0  0.5174948768674013  0.13443066773960244  0.8629307576999288  1.0000
  H   H5        1.0  0.7733189008092352  0.29245414841219125  0.39272076776394677  1.0000
  H   H6        1.0  0.22668109850966034  0.792454148453691  0.10727923287678005  1.0000
  H   H7        1.0  0.2266810987589817  0.7075458516708083  0.6072792328189123  1.0000
  H   H8        1.0  0.7733189010585565  0.2075458516293085  0.892720767706079  1.0000
  H   H9        1.0  0.4700559692113719  0.06044053006769283  0.3461772993741882  1.0000
  H   H10       1.0  0.529944029832929  0.5604405293805259  0.1538227004116599  1.0000
  H   H11       1.0  0.5299440300822502  0.9395594700153067  0.653822700353792  1.0000
  H   H12       1.0  0.4700559694606932  0.4395594699738069  0.8461772993163202  1.0000
  H   H13       1.0  0.7467063495818947  0.11713802336114555  0.38165784686439325  1.0000
  H   H14       1.0  0.25329365116313224  0.6171380234026453  0.11834215292007375  1.0000
  H   H15       1.0  0.25329364971172735  0.882861976721854  0.618342152863587  1.0000
  H   H16       1.0  0.7467063498312161  0.3828619766803542  0.8816578468065255  1.0000
  H   H17       1.0  0.14829103154955067  0.2876799462965444  0.315387747572048  1.0000
  H   H18       1.0  0.851708969470071  0.7876799463380442  0.18461225306729767  1.0000
  H   H19       1.0  0.8517089697193924  0.712320053786455  0.6846122530094297  1.0000
  H   H20       1.0  0.14829103009814584  0.2123200537449553  0.8153877475155614  1.0000
  H   H21       1.0  0.13078696702208484  0.15676902781965443  0.30832349168248924  1.0000
  H   H22       1.0  0.8692130320222161  0.6567690278611541  0.19167650810335884  1.0000
  H   H23       1.0  0.8692130322715372  0.8432309722633451  0.6916765080454909  1.0000
  H   H24       1.0  0.13078696727140615  0.3432309722218453  0.8083234916246214  1.0000
  H   H25       1.0  0.8463443968291633  0.19704033572089713  0.5625204110392749  1.0000
  H   H26       1.0  0.1536556027137801  0.6970403357623969  0.9374795886308377  1.0000
  H   H27       1.0  0.15365560416518495  0.8029596643621023  0.4374795886873244  1.0000
  H   H28       1.0  0.846344396579842  0.3029596643206026  0.06252041109714261  1.0000
  H   H29       1.0  0.645031093208812  0.19871459384102344  0.6633432975016272  1.0000
  H   H30       1.0  0.3549689063341314  0.6987145938825231  0.8366567021684851  1.0000
  H   H31       1.0  0.3549689060848102  0.8012854062419761  0.33665670222635297  1.0000
  H   H32       1.0  0.6450310929594907  0.30128540620047634  0.16334329755949512  1.0000
  H   H33       1.0  0.2058024571490679  0.06213324312839163  0.4773247608311598  1.0000
  H   H34       1.0  0.7941975418952331  0.5621332431698913  0.022675238954688235  1.0000
  H   H35       1.0  0.7941975421445543  0.9378667569546079  0.5226752388968204  1.0000
  H   H36       1.0  0.2058024573983892  0.4378667569131081  0.977324760773292  1.0000
  H   H37       1.0  0.2758864156719359  0.11884547370510251  0.6142082203153735  1.0000
  H   H38       1.0  0.7241135838710075  0.6188454737466023  0.8857917793547391  1.0000
  H   H39       1.0  0.7241135836216863  0.8811545263778969  0.38579177941260684  1.0000
  H   H40       1.0  0.27588641542261455  0.38115452633639724  0.11420822037324121  1.0000
  H   H41       1.0  0.30595384480851606  0.29643498190855166  0.6256405930339741  1.0000
  H   H42       1.0  0.6940461547344274  0.7964349819500515  0.8743594066361384  1.0000
  H   H43       1.0  0.6940461544851061  0.7035650181744478  0.37435940669400614  1.0000
  H   H44       1.0  0.305953846259921  0.20356501813294806  0.12564059309046088  1.0000
  H   H45       1.0  0.2458414432511469  0.367178226836357  0.4964309345141435  1.0000
  H   H46       1.0  0.75415855749388  0.8671782268778567  0.003569065270323492  1.0000
  H   H47       1.0  0.7541585580177962  0.6328217732466425  0.5035690660673344  1.0000
  H   H48       1.0  0.24584144179974204  0.13282177320514274  0.9964309344576568  1.0000
  C   C1        1.0  0.5889588130411014  0.2959736309829051  0.39806447348453877  1.0000
  C   C2        1.0  0.4110411877039256  0.7959736310244048  0.10193552629992816  1.0000
  C   C3        1.0  0.4110411879532469  0.7040263691000945  0.6019355262420603  1.0000
  C   C4        1.0  0.5889588132904228  0.20402636905859473  0.898064473426671  1.0000
  C   C5        1.0  0.5640608074058824  0.12197515604447133  0.3909703726877674  1.0000
  C   C6        1.0  0.43593919333914466  0.6219751560859711  0.10902962709669958  1.0000
  C   C7        1.0  0.435939193588466  0.8780248433098614  0.6090296270388317  1.0000
  C   C8        1.0  0.5640608076552037  0.3780248432683617  0.8909703726298996  1.0000
  C   C9        1.0  0.22185630301724027  0.2191445205521437  0.3528749994202404  1.0000
  C   C10       1.0  0.7781436960270606  0.7191445205936434  0.14712500036560763  1.0000
  C   C11       1.0  0.7781436962763818  0.7808554788021892  0.6471250003077398  1.0000
  C   C12       1.0  0.22185630326656167  0.2808554794893561  0.8528749993623727  1.0000
  C   C13       1.0  0.6640935285220364  0.19835320140820023  0.572694913749108  1.0000
  C   C14       1.0  0.3359064710209071  0.6983532014497  0.9273050859210045  1.0000
  C   C15       1.0  0.33590647077158586  0.8016467986747993  0.42730508597887235  1.0000
  C   C16       1.0  0.6640935299734413  0.3016467986332996  0.07269491380559465  1.0000
  C   C17       1.0  0.29642191299150833  0.12365288990457989  0.5236960757043736  1.0000
  C   C18       1.0  0.7035780868260298  0.6236528899460796  0.9763039248206177  1.0000
  C   C19       1.0  0.7035780882774348  0.8763471101784196  0.47630392487710427  1.0000
  C   C20       1.0  0.296421912742187  0.37634711013691985  0.02369607576224143  1.0000
  C   C21       1.0  0.3155479260411244  0.2981796751343187  0.5338966904634272  1.0000
  C   C22       1.0  0.684452073501819  0.7981796751758183  0.9661033092066852  1.0000
  C   C23       1.0  0.6844520732524977  0.7018203249486809  0.466103309264553  1.0000
  C   C24       1.0  0.31554792579180313  0.2018203249071811  0.03389669052129506  1.0000
  N   N1        1.0  0.19312457736375718  0.2157522558941143  0.47460019459182917  1.0000
  N   N2        1.0  0.8068754233812697  0.715752255935614  0.025399805192637775  1.0000
  N   N3        1.0  0.806875421929865  0.7842477441888852  0.5253998051361511  1.0000
  N   N4        1.0  0.19312457761307852  0.28424774414738546  0.9746001945339614  1.0000
  N   N5        1.0  0.5422079516188023  0.11680412716484875  0.5132670035320046  1.0000
  N   N6        1.0  0.4577920479241412  0.6168041272063486  0.9867329961381079  1.0000
  N   N7        1.0  0.4577920476748198  0.8831958729181507  0.4867329961959758  1.0000
  N   N8        1.0  0.5422079530702072  0.383195872876651  0.013267003588491238  1.0000
  N   N9        1.0  0.5656623486551887  0.29301129568668255  0.5222349365483308  1.0000
  N   N10       1.0  0.43433765116234935  0.7930112957281824  0.9777650639766603  1.0000
  N   N11       1.0  0.4343376509130282  0.7069887036676502  0.4777650640345283  1.0000
  N   N12       1.0  0.5656623481312727  0.20698870435481717  0.02223493575131984  1.0000
  N   N13       1.0  0.46658759456977417  0.21392347016344293  0.33858733523382967  1.0000
  N   N14       1.0  0.5334124061752529  0.7139234702049426  0.16141266455063732  1.0000
  N   N15       1.0  0.533412404723848  0.7860765299195566  0.6614126644941505  1.0000
  N   N16       1.0  0.4665875948190955  0.2860765298780568  0.8385873351759618  1.0000
  Br  Br1       1.0  0.7644447821530244  0.40842248981397  0.6137692831160152  1.0000
  Br  Br2       1.0  0.23555521766451376  0.9084224898554698  0.886230717408976  1.0000
  Br  Br3       1.0  0.23555521741519236  0.5915775102690295  0.3862307174668437  1.0000
  Br  Br4       1.0  0.7644447819037031  0.09157751022752973  0.1137692831738831  1.0000
  Br  Br5       1.0  0.02274290034555087  0.5354655028252568  0.7325192028938728  1.0000
  Br  Br6       1.0  0.9772570991973927  0.03546550278375712  0.7674807967762397  1.0000
  Br  Br7       1.0  0.9772570989480713  0.4645344972577426  0.2674807968341075  1.0000
  Br  Br8       1.0  0.0227429000962295  0.9645344972992423  0.23251920295174056  1.0000
