data_image0
_chemical_formula_structural       C8N4Br8
_chemical_formula_sum              "C8 N4 Br8"
_cell_length_a       7.106136712132095
_cell_length_b       7.106136712132094
_cell_length_c       11.660636841771582
_cell_angle_alpha    90.0
_cell_angle_beta     90.0
_cell_angle_gamma    90.0

_space_group_name_H-M_alt    "P 1"
_space_group_IT_number       1

loop_
  _space_group_symop_operation_xyz
  'x, y, z'

loop_
  _atom_site_type_symbol
  _atom_site_label
  _atom_site_symmetry_multiplicity
  _atom_site_fract_x
  _atom_site_fract_y
  _atom_site_fract_z
  _atom_site_occupancy
  C   C1        1.0  0.6843128044418518  0.6175867782054527  0.2361028584766151  1.0000
  C   C2        1.0  0.882413222048111  0.6843128036809194  0.2361028584766151  1.0000
  C   C3        1.0  0.8156871965726443  0.8824132226944131  0.2361028584766151  1.0000
  C   C4        1.0  0.6175867775591506  0.8156871958117119  0.2361028584766151  1.0000
  C   C5        1.0  0.31568719576540083  0.3824132223944578  0.7638971413714565  1.0000
  C   C6        1.0  0.11758677815914155  0.31568719691899105  0.7638971413714565  1.0000
  C   C7        1.0  0.18431280363460828  0.11758677790549743  0.7638971413714565  1.0000
  C   C8        1.0  0.3824132226481019  0.18431280338096417  0.7638971413714565  1.0000
  N   N1        1.0  0.49999999940000917  0.5000000002999553  0.4999999999240358  1.0000
  N   N2        1.0  2.5364415645401443e-10  0.5000000005535995  0.4999999999240358  1.0000
  N   N3        1.0  0.0  0.0  0.4999999999240358  1.0000
  N   N4        1.0  0.5000000005535994  0.9999999997463559  0.4999999999240358  1.0000
  Br  Br1       1.0  0.061299617471511  0.5975150805260917  0.34696688138907167  1.0000
  Br  Br2       1.0  0.9024849197274721  0.06129961811781293  0.34696688138907167  1.0000
  Br  Br3       1.0  0.4387003824357864  0.9024849194738283  0.34696688138907167  1.0000
  Br  Br4       1.0  0.5975150793725013  0.43870038167485403  0.34696688138907167  1.0000
  Br  Br5       1.0  0.9387003813285072  0.40248492007381903  0.6530331193165859  1.0000
  Br  Br6       1.0  0.09751508047978043  0.9387003824820976  0.6530331193165859  1.0000
  Br  Br7       1.0  0.5612996177714662  0.09751507971884799  0.6530331193165859  1.0000
  Br  Br8       1.0  0.402484919427517  0.5612996175178222  0.6530331193165859  1.0000
