data_46920
_symmetry_space_group_name_H-M    'P1'
_symmetry_Int_Tables_number       1
loop_
_symmetry_equiv_pos_site_id
_symmetry_equiv_pos_as_xyz
1 x,y,z
_cell_length_a                   13.4260237985727
_cell_length_b                   15.866479279463789
_cell_length_c                   14.024707290424189
_cell_angle_alpha                116.90532661612203
_cell_angle_beta                 106.14707580610921
_cell_angle_gamma                70.58509906948528
loop_
_atom_site_label
_atom_site_type_symbol
_atom_site_fract_x
_atom_site_fract_y
_atom_site_fract_z
     1  O          0.73807391       0.54118565       0.43552570
     2  N          0.85110842       0.39799917       0.43712402
     3  H          0.86629577       0.32526365       0.39227709
     4  N          0.85596553       0.33110858       0.75578337
     5  C          0.77707669       0.35631464       0.68555163
     6  H          0.69982149       0.34898555       0.68566797
     7  C          0.78992307       0.39020664       0.61545391
     8  H          0.72286379       0.41031202       0.55980727
     9  C          0.89092036       0.39812832       0.61846371
    10  C          0.97381916       0.37158873       0.69228437
    11  H          1.05371938       0.37643806       0.69788272
    12  C          0.95187319       0.33889725       0.75890412
    13  H          1.01418584       0.31766922       0.81756452
    14  C          0.77049724       0.45299774       0.39394444
    15  C          0.90941584       0.43510327       0.54456737
    16  H          0.88069522       0.51461149       0.57574380
    17  H          0.99486759       0.41583194       0.54068529
    18  O          0.75329937       0.30364184       0.23931113
    19  N          0.64008625       0.44676110       0.23779908
    20  H          0.62434047       0.51947453       0.28279580
    21  N          0.61783733       0.51895424      -0.08330195
    22  C          0.69532107       0.50820117      -0.00451246
    23  H          0.76688873       0.52840851       0.00124122
    24  C          0.68797043       0.47342862       0.06726013
    25  H          0.75385746       0.46559993       0.12998090
    26  C          0.59423423       0.44864387       0.05655631
    27  C          0.51273260       0.46000895      -0.02634149
    28  H          0.43837135       0.44175624      -0.03810574
    29  C          0.52883388       0.49508022      -0.09376253
    30  H          0.46734500       0.50495227      -0.15919219
    31  C          0.72082991       0.39181196       0.28095664
    32  C          0.58114359       0.40934165       0.13087881
    33  H          0.61224301       0.33002301       0.09869549
    34  H          0.49626991       0.42575587       0.13571657
    35  O          1.24609962       0.68054847       0.64652479
    36  O          0.64178704       1.21081287       0.82455833
    37  O          1.13270026       0.67922927       0.49584014
    38  O          0.75518640       1.21213207       0.97524298
    39  H          1.14291814       0.61102084       0.48015545
    40  H          0.74496852       1.28034050       0.99092767
    41  C          1.18898098       0.72281938       0.59123015
    42  C          0.69890568       1.16854196       0.87985298
    43  C          0.99368188       0.91993400       0.70979188
    44  C          0.89420478       0.97142734       0.76129124
    45  C          1.07333724       0.88076451       0.66918043
    46  C          0.81454942       1.01059683       0.80190269
    47  C          1.16957598       0.83062964       0.61945432
    48  C          0.71831068       1.06073170       0.85162880
    49  H          1.23737568       0.85731404       0.67639241
    50  H          0.65051098       1.03404730       0.79469071
    51  H          1.15855689       0.84221751       0.54579818
    52  H          0.72932977       1.04914383       0.92528494
