data_AMECOK
_symmetry_space_group_name_H-M    'P1'
_symmetry_Int_Tables_number       1
loop_
_symmetry_equiv_pos_site_id
_symmetry_equiv_pos_as_xyz
1 x,y,z
_cell_length_a                   7.7754
_cell_length_b                   4.49737
_cell_length_c                   9.0243
_cell_angle_alpha                90.0
_cell_angle_beta                 101.7301
_cell_angle_gamma                90.0
loop_
_atom_site_label
_atom_site_type_symbol
_atom_site_fract_x
_atom_site_fract_y
_atom_site_fract_z
     1  C          0.95911130       0.24502000       0.66956100
     2  C          0.45911130       0.74502000       0.66956100
     3  C          0.04088870       0.24502000       0.83043900
     4  C          0.54088870       0.74502000       0.83043900
     5  C          0.04088870       0.75498000       0.33043900
     6  C          0.54088870       0.25498000       0.33043900
     7  C          0.95911130       0.75498000       0.16956100
     8  C          0.45911130       0.25498000       0.16956100
     9  F          0.84561120       0.00432000       0.63470110
    10  F          0.34561120       0.50432000       0.63470110
    11  F          0.15438880       0.00432000       0.86529890
    12  F          0.65438880       0.50432000       0.86529890
    13  F          0.15438880      -0.00432000       0.36529890
    14  F          0.65438880       0.49568000       0.36529890
    15  F          0.84561120      -0.00432000       0.13470110
    16  F          0.34561120       0.49568000       0.13470110
    17  H          0.05620000       0.22240000       0.60020000
    18  H          0.55620000       0.72240000       0.60020000
    19  H          0.94380000       0.22240000       0.89980000
    20  H          0.44380000       0.72240000       0.89980000
    21  H          0.94380000       0.77760000       0.39980000
    22  H          0.44380000       0.27760000       0.39980000
    23  H          0.05620000       0.77760000       0.10020000
    24  H          0.55620000       0.27760000       0.10020000
    25  H          0.88420000       0.44430000       0.64120000
    26  H          0.38420000       0.94430000       0.64120000
    27  H          0.11580000       0.44430000       0.85880000
    28  H          0.61580000       0.94430000       0.85880000
    29  H          0.11580000       0.55570000       0.35880000
    30  H          0.61580000       0.05570000       0.35880000
    31  H          0.88420000       0.55570000       0.14120000
    32  H          0.38420000       0.05570000       0.14120000
