data_AMOREA
_symmetry_space_group_name_H-M    'P1'
_symmetry_Int_Tables_number       1
loop_
_symmetry_equiv_pos_site_id
_symmetry_equiv_pos_as_xyz
1 x,y,z
_cell_length_a                   11.4073
_cell_length_b                   5.755119
_cell_length_c                   5.975019
_cell_angle_alpha                90.0
_cell_angle_beta                 90.0
_cell_angle_gamma                90.0
loop_
_atom_site_label
_atom_site_type_symbol
_atom_site_fract_x
_atom_site_fract_y
_atom_site_fract_z
     1  N          0.06843000       0.25000000       0.12684000
     2  N          0.43157000       0.75000000       0.62684000
     3  N          0.56843000       0.25000000       0.37316000
     4  N          0.93157000       0.75000000       0.87316000
     5  C          0.08073000       0.25000000       0.93806000
     6  C          0.41927000       0.75000000       0.43806000
     7  C          0.58073000       0.25000000       0.56194000
     8  C          0.91927000       0.75000000       0.06194000
     9  S          0.09237600       0.25000000       0.65302130
    10  S          0.40762400       0.75000000       0.15302130
    11  S          0.59237600       0.25000000       0.84697870
    12  S          0.90762400       0.75000000       0.34697870
    13  C          0.24973000       0.25000000       0.65095000
    14  C          0.25027000       0.75000000       0.15095000
    15  C          0.74973000       0.25000000       0.84905000
    16  C          0.75027000       0.75000000       0.34905000
    17  F          0.28316160       0.25000000       0.43593000
    18  F          0.21683840       0.75000000       0.93593000
    19  F          0.78316160       0.25000000       0.06407000
    20  F          0.71683840       0.75000000       0.56407000
    21  O          0.31592000       0.25000000       0.80204000
    22  O          0.18408000       0.75000000       0.30204000
    23  O          0.81592000       0.25000000       0.69796000
    24  O          0.68408000       0.75000000       0.19796000
