data_BACJUN02
_symmetry_space_group_name_H-M    'P1'
_symmetry_Int_Tables_number       1
loop_
_symmetry_equiv_pos_site_id
_symmetry_equiv_pos_as_xyz
1 x,y,z
_cell_length_a                   9.333019
_cell_length_b                   5.848012
_cell_length_c                   3.77358
_cell_angle_alpha                90.0
_cell_angle_beta                 90.0
_cell_angle_gamma                90.0
loop_
_atom_site_label
_atom_site_type_symbol
_atom_site_fract_x
_atom_site_fract_y
_atom_site_fract_z
     1  N          0.14904000       0.00000000       0.00000000
     2  N          0.35096000       0.50000000       0.50000000
     3  N          0.85096000       0.00000000       0.00000000
     4  N          0.64904000       0.50000000       0.50000000
     5  C          0.07374000       0.17589000       0.11797000
     6  C          0.07374000       0.82411000       0.88203000
     7  C          0.42626000       0.32411000       0.61797000
     8  C          0.42626000       0.67589000       0.38203000
     9  C          0.92626000       0.82411000       0.88203000
    10  C          0.92626000       0.17589000       0.11797000
    11  C          0.57374000       0.67589000       0.38203000
    12  C          0.57374000       0.32411000       0.61797000
    13  H          0.12630000       0.32490000       0.22990000
    14  H          0.12630000       0.67510000       0.77010000
    15  H          0.37370000       0.17510000       0.72990000
    16  H          0.37370000       0.82490000       0.27010000
    17  H          0.87370000       0.67510000       0.77010000
    18  H          0.87370000       0.32490000       0.22990000
    19  H          0.62630000       0.82490000       0.27010000
    20  H          0.62630000       0.17510000       0.72990000
