data_BCLETH
_symmetry_space_group_name_H-M    'P1'
_symmetry_Int_Tables_number       1
loop_
_symmetry_equiv_pos_site_id
_symmetry_equiv_pos_as_xyz
1 x,y,z
_cell_length_a                   10.9506
_cell_length_b                   5.7237
_cell_length_c                   12.53314
_cell_angle_alpha                90.0
_cell_angle_beta                 100.5217
_cell_angle_gamma                90.0
loop_
_atom_site_label
_atom_site_type_symbol
_atom_site_fract_x
_atom_site_fract_y
_atom_site_fract_z
     1  Cl         0.38250000       0.64750000       0.12150000
     2  Cl         0.88250000       0.14750000       0.12150000
     3  Cl         0.61750000       0.64750000       0.37850000
     4  Cl         0.11750000       0.14750000       0.37850000
     5  Cl         0.61750000       0.35250000       0.87850000
     6  Cl         0.11750000       0.85250000       0.87850000
     7  Cl         0.38250000       0.35250000       0.62150000
     8  Cl         0.88250000       0.85250000       0.62150000
     9  Cl         0.12750000       0.63900000       0.17500000
    10  Cl         0.62750000       0.13900000       0.17500000
    11  Cl         0.87250000       0.63900000       0.32500000
    12  Cl         0.37250000       0.13900000       0.32500000
    13  Cl         0.87250000       0.36100000       0.82500000
    14  Cl         0.37250000       0.86100000       0.82500000
    15  Cl         0.12750000       0.36100000       0.67500000
    16  Cl         0.62750000       0.86100000       0.67500000
    17  C          0.20350000       0.29000000       0.03100000
    18  C          0.70350000       0.79000000       0.03100000
    19  C          0.79650000       0.29000000       0.46900000
    20  C          0.29650000       0.79000000       0.46900000
    21  C          0.79650000       0.71000000       0.96900000
    22  C          0.29650000       0.21000000       0.96900000
    23  C          0.20350000       0.71000000       0.53100000
    24  C          0.70350000       0.21000000       0.53100000
    25  B          0.23900000       0.51300000       0.10450000
    26  B          0.73900000       0.01300000       0.10450000
    27  B          0.76100000       0.51300000       0.39550000
    28  B          0.26100000       0.01300000       0.39550000
    29  B          0.76100000       0.48700000       0.89550000
    30  B          0.26100000      -0.01300000       0.89550000
    31  B          0.23900000       0.48700000       0.60450000
    32  B          0.73900000      -0.01300000       0.60450000
