data_BENZEN03
_symmetry_space_group_name_H-M    'P1'
_symmetry_Int_Tables_number       1
loop_
_symmetry_equiv_pos_site_id
_symmetry_equiv_pos_as_xyz
1 x,y,z
_cell_length_a                   5.4175
_cell_length_b                   5.37619
_cell_length_c                   7.5327
_cell_angle_alpha                90.0
_cell_angle_beta                 110.008
_cell_angle_gamma                90.0
loop_
_atom_site_label
_atom_site_type_symbol
_atom_site_fract_x
_atom_site_fract_y
_atom_site_fract_z
     1  C          0.73860000      -0.02341000       0.88502000
     2  C          0.26140000       0.47659000       0.61498000
     3  C          0.26140000       0.02341000       0.11498000
     4  C          0.73860000       0.52341000       0.38502000
     5  C          0.91985000       0.79541000       0.88125000
     6  C          0.08015000       0.29541000       0.61875000
     7  C          0.08015000       0.20459000       0.11875000
     8  C          0.91985000       0.70459000       0.38125000
     9  C          0.81875000       0.18119000       0.00377000
    10  C          0.18125000       0.68119000       0.49623000
    11  C          0.18125000       0.81881000      -0.00377000
    12  C          0.81875000       0.31881000       0.50377000
    13  H          0.55994000       0.96060000       0.80643000
    14  H          0.44006000       0.46060000       0.69357000
    15  H          0.44006000       0.03940000       0.19357000
    16  H          0.55994000       0.53940000       0.30643000
    17  H          0.86520000       0.65508000       0.79993000
    18  H          0.13480000       0.15508000       0.70007000
    19  H          0.13480000       0.34492000       0.20007000
    20  H          0.86520000       0.84492000       0.29993000
    21  H          0.69475000       0.30552000       0.00650000
    22  H          0.30525000       0.80552000       0.49350000
    23  H          0.30525000       0.69448000      -0.00650000
    24  H          0.69475000       0.19448000       0.50650000
