data_BINDEI
_symmetry_space_group_name_H-M    'P1'
_symmetry_Int_Tables_number       1
loop_
_symmetry_equiv_pos_site_id
_symmetry_equiv_pos_as_xyz
1 x,y,z
_cell_length_a                   18.962816
_cell_length_b                   5.78225
_cell_length_c                   8.35327
_cell_angle_alpha                90.0
_cell_angle_beta                 90.0
_cell_angle_gamma                90.0
loop_
_atom_site_label
_atom_site_type_symbol
_atom_site_fract_x
_atom_site_fract_y
_atom_site_fract_z
     1  C          0.50000000       0.29003000       0.40882000
     2  C          0.00000000       0.79003000       0.40882000
     3  C          0.50000000       0.20997000       0.90882000
     4  C          0.50000000       0.79003000       0.09118000
     5  C          0.50000000       0.70997000       0.59118000
     6  C          0.00000000       0.70997000       0.90882000
     7  C          0.00000000       0.29003000       0.09118000
     8  C          0.00000000       0.20997000       0.59118000
     9  C          0.43802600       0.39802000       0.45552140
    10  C          0.93802600       0.89802000       0.45552140
    11  C          0.56197400       0.10198000       0.95552140
    12  C          0.56197400       0.89802000       0.04447860
    13  C          0.43802600       0.60198000       0.54447860
    14  C          0.06197400       0.60198000       0.95552140
    15  C          0.06197400       0.39802000       0.04447860
    16  C          0.93802600       0.10198000       0.54447860
    17  C          0.56197400       0.60198000       0.54447860
    18  C          0.06197400       0.10198000       0.54447860
    19  C          0.43802600       0.89802000       0.04447860
    20  C          0.43802600       0.10198000       0.95552140
    21  C          0.56197400       0.39802000       0.45552140
    22  C          0.93802600       0.39802000       0.04447860
    23  C          0.93802600       0.60198000       0.95552140
    24  C          0.06197400       0.89802000       0.45552140
    25  C          0.36372600       0.32522000       0.42245150
    26  C          0.86372600       0.82522000       0.42245150
    27  C          0.63627400       0.17478000       0.92245150
    28  C          0.63627400       0.82522000       0.07754850
    29  C          0.36372600       0.67478000       0.57754850
    30  C          0.13627400       0.67478000       0.92245150
    31  C          0.13627400       0.32522000       0.07754850
    32  C          0.86372600       0.17478000       0.57754850
    33  C          0.63627400       0.67478000       0.57754850
    34  C          0.13627400       0.17478000       0.57754850
    35  C          0.36372600       0.82522000       0.07754850
    36  C          0.36372600       0.17478000       0.92245150
    37  C          0.63627400       0.32522000       0.42245150
    38  C          0.86372600       0.32522000       0.07754850
    39  C          0.86372600       0.67478000       0.92245150
    40  C          0.13627400       0.82522000       0.42245150
    41  C          0.31528900       0.50000000       0.50000000
    42  C          0.81528900       0.00000000       0.50000000
    43  C          0.68471100       0.00000000      -0.00000000
    44  C          0.18471100       0.50000000      -0.00000000
    45  C          0.68471100       0.50000000       0.50000000
    46  C          0.18471100       0.00000000       0.50000000
    47  C          0.31528900       0.00000000       0.00000000
    48  C          0.81528900       0.50000000       0.00000000
    49  O          0.34696500       0.15690180       0.34683130
    50  O          0.84696500       0.65690180       0.34683130
    51  O          0.65303500       0.34309820       0.84683130
    52  O          0.65303500       0.65690180       0.15316870
    53  O          0.34696500       0.84309820       0.65316870
    54  O          0.15303500       0.84309820       0.84683130
    55  O          0.15303500       0.15690180       0.15316870
    56  O          0.84696500       0.34309820       0.65316870
    57  O          0.65303500       0.84309820       0.65316870
    58  O          0.15303500       0.34309820       0.65316870
    59  O          0.34696500       0.65690180       0.15316870
    60  O          0.34696500       0.34309820       0.84683130
    61  O          0.65303500       0.15690180       0.34683130
    62  O          0.84696500       0.15690180       0.15316870
    63  O          0.84696500       0.84309820       0.84683130
    64  O          0.15303500       0.65690180       0.34683130
    65  H          0.50000000       0.14640000       0.34730000
    66  H          0.00000000       0.64640000       0.34730000
    67  H          0.50000000       0.35360000       0.84730000
    68  H          0.50000000       0.64640000       0.15270000
    69  H          0.50000000       0.85360000       0.65270000
    70  H          0.00000000       0.85360000       0.84730000
    71  H          0.00000000       0.14640000       0.15270000
    72  H          0.00000000       0.35360000       0.65270000
    73  H          0.28608000       0.42530000       0.57831900
    74  H          0.78608000       0.92530000       0.57831900
    75  H          0.71392000       0.07470000       0.07831900
    76  H          0.71392000       0.92530000       0.92168100
    77  H          0.28608000       0.57470000       0.42168100
    78  H          0.21392000       0.57470000       0.07831900
    79  H          0.21392000       0.42530000       0.92168100
    80  H          0.78608000       0.07470000       0.42168100
    81  H          0.71392000       0.57470000       0.42168100
    82  H          0.21392000       0.07470000       0.42168100
    83  H          0.28608000       0.92530000       0.92168100
    84  H          0.28608000       0.07470000       0.07831900
    85  H          0.71392000       0.42530000       0.57831900
    86  H          0.78608000       0.42530000       0.92168100
    87  H          0.78608000       0.57470000       0.07831900
    88  H          0.21392000       0.92530000       0.57831900
