
#######################################################################
#
#                 Cambridge Crystallographic Data Centre
#                                CCDC 
#
#######################################################################
#
# If this CIF has been generated from an entry in the Cambridge 
# Structural Database, then it will include bibliographic, chemical, 
# crystal, experimental, refinement or atomic coordinate data resulting 
# from the CCDC's data processing and validation procedures.
#
#######################################################################

data_BISJIW
_chemical_formula_moiety         'C4 H2 N2'
_chemical_name_systematic        Fumaronitrile
_symmetry_cell_setting           monoclinic
_symmetry_space_group_name_H-M   'P 21/c'
_symmetry_Int_Tables_number      14
_space_group_name_Hall           '-P 2ybc'
loop_
_symmetry_equiv_pos_site_id
_symmetry_equiv_pos_as_xyz
1 x,y,z
2 -x,1/2+y,1/2-z
3 -x,-y,-z
4 x,1/2-y,1/2+z
_cell_length_a                   3.902(3)
_cell_length_b                   5.609(10)
_cell_length_c                   9.970(10)
_cell_angle_alpha                90
_cell_angle_beta                 99.9(1)
_cell_angle_gamma                90
_cell_volume                     214.957
_cell_formula_units_Z            2
loop_
_atom_site_label
_atom_site_type_symbol
_atom_site_fract_x
_atom_site_fract_y
_atom_site_fract_z
C1 C 0.09000 0.00970 0.05790
C2 C 0.19150 0.24960 0.11270
N1 N 0.27690 0.42070 0.16190
H1 H 0.16120 -0.12910 0.11050
C1B C -0.09000 -0.00970 -0.05790
C2B C -0.19150 -0.24960 -0.11270
H1B H -0.16120 0.12910 -0.11050
N1B N -0.27690 -0.42070 -0.16190
loop_
_geom_bond_atom_site_label_1
_geom_bond_atom_site_label_2
_geom_bond_site_symmetry_1
_geom_bond_site_symmetry_2
C1 C2 1_555 1_555
C2 N1 1_555 1_555
H1 C1 1_555 1_555
C1B C1 1_555 1_555
C2B C1B 1_555 1_555
H1B C1B 1_555 1_555
N1B C2B 1_555 1_555

#END
