data_BNZQUI
_symmetry_space_group_name_H-M    'P1'
_symmetry_Int_Tables_number       1
loop_
_symmetry_equiv_pos_site_id
_symmetry_equiv_pos_as_xyz
1 x,y,z
_cell_length_a                   7.055
_cell_length_b                   6.795
_cell_length_c                   5.767
_cell_angle_alpha                90.0
_cell_angle_beta                 101.47
_cell_angle_gamma                90.0
loop_
_atom_site_label
_atom_site_type_symbol
_atom_site_fract_x
_atom_site_fract_y
_atom_site_fract_z
     1  C          0.10690000       0.97280000       0.23340000
     2  C          0.39310000       0.47280000       0.76660000
     3  C          0.89310000       0.02720000       0.76660000
     4  C          0.60690000       0.52720000       0.23340000
     5  C          0.06380000       0.17030000       0.13410000
     6  C          0.43620000       0.67030000       0.86590000
     7  C          0.93620000       0.82970000       0.86590000
     8  C          0.56380000       0.32970000       0.13410000
     9  C          0.04590000       0.81520000       0.10950000
    10  C          0.45410000       0.31520000       0.89050000
    11  C          0.95410000       0.18480000       0.89050000
    12  C          0.54590000       0.68480000       0.10950000
    13  H          0.18680000       0.95410000       0.40940000
    14  H          0.31320000       0.45410000       0.59060000
    15  H          0.81320000       0.04590000       0.59060000
    16  H          0.68680000       0.54590000       0.40940000
    17  H          0.08120000       0.67300000       0.19290000
    18  H          0.41880000       0.17300000       0.80710000
    19  H          0.91880000       0.32700000       0.80710000
    20  H          0.58120000       0.82700000       0.19290000
    21  O          0.11820000       0.31680000       0.25020000
    22  O          0.38180000       0.81680000       0.74980000
    23  O          0.88180000       0.68320000       0.74980000
    24  O          0.61820000       0.18320000       0.25020000
