data_BOBDUT
_symmetry_space_group_name_H-M    'P1'
_symmetry_Int_Tables_number       1
loop_
_symmetry_equiv_pos_site_id
_symmetry_equiv_pos_as_xyz
1 x,y,z
_cell_length_a                   6.94837
_cell_length_b                   6.14838
_cell_length_c                   10.10748
_cell_angle_alpha                90.0
_cell_angle_beta                 101.4458
_cell_angle_gamma                90.0
loop_
_atom_site_label
_atom_site_type_symbol
_atom_site_fract_x
_atom_site_fract_y
_atom_site_fract_z
     1  Br         0.41310190       0.17254180       0.72792120
     2  Br         0.08689810       0.67254180       0.77207880
     3  Br         0.58689810       0.82745820       0.27207880
     4  Br         0.91310190       0.32745820       0.22792120
     5  Br         0.83292000       0.14612000       0.60259130
     6  Br         0.66708000       0.64612000       0.89740870
     7  Br         0.16708000       0.85388000       0.39740870
     8  Br         0.33292000       0.35388000       0.10259130
     9  N          0.33141200       0.50631200       0.54697000
    10  N          0.16858800       0.00631200       0.95303000
    11  N          0.66858800       0.49368800       0.45303000
    12  N          0.83141200      -0.00631200       0.04697000
    13  C          0.46311300       0.36261300       0.59179000
    14  C          0.03688700       0.86261300       0.90821000
    15  C          0.53688700       0.63738700       0.40821000
    16  C          0.96311300       0.13738700       0.09179000
    17  C          0.63921300       0.35411200       0.54329000
    18  C          0.86078700       0.85411200       0.95671000
    19  C          0.36078700       0.64588800       0.45671000
    20  C          0.13921300       0.14588800       0.04329000
