data_BROFRM05
_symmetry_space_group_name_H-M    'P1'
_symmetry_Int_Tables_number       1
loop_
_symmetry_equiv_pos_site_id
_symmetry_equiv_pos_as_xyz
1 x,y,z
_cell_length_a                   6.322915
_cell_length_b                   6.322915
_cell_length_c                   7.28514
_cell_angle_alpha                90.0
_cell_angle_beta                 90.0
_cell_angle_gamma                120.0
loop_
_atom_site_label
_atom_site_type_symbol
_atom_site_fract_x
_atom_site_fract_y
_atom_site_fract_z
     1  Br         0.69118170       0.63377160       0.00000000
     2  Br         0.36622840       0.05741010       0.00000000
     3  Br         0.94258990       0.30881830       0.00000000
     4  Br         0.30881830       0.36622840       0.50000000
     5  Br         0.63377160       0.94258990       0.50000000
     6  Br         0.05741010       0.69118170       0.50000000
     7  C          0.66670000       0.33330000       0.08470000
     8  C          0.33330000       0.66670000       0.58470000
     9  H          0.66670000       0.33330000       0.23280000
    10  H          0.33330000       0.66670000       0.73280000
