data_BUGKIX
_symmetry_space_group_name_H-M    'P1'
_symmetry_Int_Tables_number       1
loop_
_symmetry_equiv_pos_site_id
_symmetry_equiv_pos_as_xyz
1 x,y,z
_cell_length_a                   7.4431
_cell_length_b                   5.7911
_cell_length_c                   7.8122
_cell_angle_alpha                90.0
_cell_angle_beta                 95.512
_cell_angle_gamma                90.0
loop_
_atom_site_label
_atom_site_type_symbol
_atom_site_fract_x
_atom_site_fract_y
_atom_site_fract_z
     1  C          0.41030000       0.00700000       0.54380000
     2  C          0.08970000       0.50700000       0.95620000
     3  C          0.58970000      -0.00700000       0.45620000
     4  C          0.91030000       0.49300000       0.04380000
     5  C          0.26630000       0.11210000       0.42640000
     6  C          0.23370000       0.61210000       0.07360000
     7  C          0.73370000       0.88790000       0.57360000
     8  C          0.76630000       0.38790000       0.92640000
     9  N          0.15840000       0.19970000       0.33600000
    10  N          0.34160000       0.69970000       0.16400000
    11  N          0.84160000       0.80030000       0.66400000
    12  N          0.65840000       0.30030000       0.83600000
    13  C          0.35780000       0.77370000       0.59600000
    14  C          0.14220000       0.27370000       0.90400000
    15  C          0.64220000       0.22630000       0.40400000
    16  C          0.85780000       0.72630000       0.09600000
    17  N          0.32120000       0.59410000       0.63930000
    18  N          0.17880000       0.09410000       0.86070000
    19  N          0.67880000       0.40590000       0.36070000
    20  N          0.82120000       0.90590000       0.13930000
    21  H          0.42980000       0.10140000       0.64500000
    22  H          0.07020000       0.60140000       0.85500000
    23  H          0.57020000       0.89860000       0.35500000
    24  H          0.92980000       0.39860000       0.14500000
