data_BUNJAV
_symmetry_space_group_name_H-M    'P1'
_symmetry_Int_Tables_number       1
loop_
_symmetry_equiv_pos_site_id
_symmetry_equiv_pos_as_xyz
1 x,y,z
_cell_length_a                   6.0769
_cell_length_b                   8.9149
_cell_length_c                   7.74311
_cell_angle_alpha                90.0
_cell_angle_beta                 106.1112
_cell_angle_gamma                90.0
loop_
_atom_site_label
_atom_site_type_symbol
_atom_site_fract_x
_atom_site_fract_y
_atom_site_fract_z
     1  O         -0.00000000       0.08470000       0.25000000
     2  O          0.50000000       0.58470000       0.25000000
     3  O          0.00000000       0.91530000       0.75000000
     4  O          0.50000000       0.41530000       0.75000000
     5  C          0.89160000       0.17860000       0.35160000
     6  C          0.39160000       0.67860000       0.35160000
     7  C          0.10840000       0.17860000       0.14840000
     8  C          0.60840000       0.67860000       0.14840000
     9  C          0.10840000       0.82140000       0.64840000
    10  C          0.60840000       0.32140000       0.64840000
    11  C          0.89160000       0.82140000       0.85160000
    12  C          0.39160000       0.32140000       0.85160000
    13  C         -0.02350000       0.33760000       0.34040000
    14  C          0.47650000       0.83760000       0.34040000
    15  C          0.02350000       0.33760000       0.15960000
    16  C          0.52350000       0.83760000       0.15960000
    17  C          0.02350000       0.66240000       0.65960000
    18  C          0.52350000       0.16240000       0.65960000
    19  C         -0.02350000       0.66240000       0.84040000
    20  C          0.47650000       0.16240000       0.84040000
    21  H          0.71400000       0.17100000       0.29200000
    22  H          0.21400000       0.67100000       0.29200000
    23  H          0.28600000       0.17100000       0.20800000
    24  H          0.78600000       0.67100000       0.20800000
    25  H          0.28600000       0.82900000       0.70800000
    26  H          0.78600000       0.32900000       0.70800000
    27  H          0.71400000       0.82900000       0.79200000
    28  H          0.21400000       0.32900000       0.79200000
    29  H          0.94500000       0.13700000       0.48300000
    30  H          0.44500000       0.63700000       0.48300000
    31  H          0.05500000       0.13700000       0.01700000
    32  H          0.55500000       0.63700000       0.01700000
    33  H          0.05500000       0.86300000       0.51700000
    34  H          0.55500000       0.36300000       0.51700000
    35  H          0.94500000       0.86300000      -0.01700000
    36  H          0.44500000       0.36300000      -0.01700000
    37  H          0.87000000       0.42600000       0.36100000
    38  H          0.37000000       0.92600000       0.36100000
    39  H          0.13000000       0.42600000       0.13900000
    40  H          0.63000000       0.92600000       0.13900000
    41  H          0.13000000       0.57400000       0.63900000
    42  H          0.63000000       0.07400000       0.63900000
    43  H          0.87000000       0.57400000       0.86100000
    44  H          0.37000000       0.07400000       0.86100000
    45  H          0.11000000       0.35800000       0.45700000
    46  H          0.61000000       0.85800000       0.45700000
    47  H          0.89000000       0.35800000       0.04300000
    48  H          0.39000000       0.85800000       0.04300000
    49  H          0.89000000       0.64200000       0.54300000
    50  H          0.39000000       0.14200000       0.54300000
    51  H          0.11000000       0.64200000       0.95700000
    52  H          0.61000000       0.14200000       0.95700000
