data_CABBIQ
_symmetry_space_group_name_H-M    'P1'
_symmetry_Int_Tables_number       1
loop_
_symmetry_equiv_pos_site_id
_symmetry_equiv_pos_as_xyz
1 x,y,z
_cell_length_a                   7.39435
_cell_length_b                   5.20527
_cell_length_c                   6.53328
_cell_angle_alpha                90.0
_cell_angle_beta                 117.44
_cell_angle_gamma                90.0
loop_
_atom_site_label
_atom_site_type_symbol
_atom_site_fract_x
_atom_site_fract_y
_atom_site_fract_z
     1  O          0.09530000       0.18420000       0.24750000
     2  O          0.40470000       0.68420000       0.25250000
     3  O          0.90470000       0.81580000       0.75250000
     4  O          0.59530000       0.31580000       0.74750000
     5  C         -0.00290000       0.01490000       0.11550000
     6  C          0.50290000       0.51490000       0.38450000
     7  C          0.00290000      -0.01490000       0.88450000
     8  C          0.49710000       0.48510000       0.61550000
     9  C          0.86820000       0.83070000       0.16060000
    10  C          0.63180000       0.33070000       0.33940000
    11  C          0.13180000       0.16930000       0.83940000
    12  C          0.36820000       0.66930000       0.66060000
    13  H          0.91200000       0.65100000       0.13800000
    14  H          0.58800000       0.15100000       0.36200000
    15  H          0.08800000       0.34900000       0.86200000
    16  H          0.41200000       0.84900000       0.63800000
    17  H          0.89200000       0.84500000       0.32000000
    18  H          0.60800000       0.34500000       0.18000000
    19  H          0.10800000       0.15500000       0.68000000
    20  H          0.39200000       0.65500000       0.82000000
    21  H          0.71000000       0.87400000       0.05000000
    22  H          0.79000000       0.37400000       0.45000000
    23  H          0.29000000       0.12600000       0.95000000
    24  H          0.21000000       0.62600000       0.55000000
