data_CADVEI
_symmetry_space_group_name_H-M    'P1'
_symmetry_Int_Tables_number       1
loop_
_symmetry_equiv_pos_site_id
_symmetry_equiv_pos_as_xyz
1 x,y,z
_cell_length_a                   4.0332
_cell_length_b                   14.2018
_cell_length_c                   5.3316
_cell_angle_alpha                90.0
_cell_angle_beta                 103.046
_cell_angle_gamma                90.0
loop_
_atom_site_label
_atom_site_type_symbol
_atom_site_fract_x
_atom_site_fract_y
_atom_site_fract_z
     1  N         -0.03170000       0.15780000       0.10580000
     2  N          0.03170000       0.65780000       0.39420000
     3  N          0.03170000       0.84220000       0.89420000
     4  N         -0.03170000       0.34220000       0.60580000
     5  C          0.13980000       0.14510000       0.30430000
     6  C          0.86020000       0.64510000       0.19570000
     7  C          0.86020000       0.85490000       0.69570000
     8  C          0.13980000       0.35490000       0.80430000
     9  C          0.36240000       0.12930000       0.55700000
    10  C          0.63760000       0.62930000       0.94300000
    11  C          0.63760000       0.87070000       0.44300000
    12  C          0.36240000       0.37070000       0.05700000
    13  C          0.51680000       0.03240000       0.58860000
    14  C          0.48320000       0.53240000       0.91140000
    15  C          0.48320000       0.96760000       0.41140000
    16  C          0.51680000       0.46760000       0.08860000
    17  H          0.54040000       0.17760000       0.58450000
    18  H          0.45960000       0.67760000       0.91550000
    19  H          0.45960000       0.82240000       0.41550000
    20  H          0.54040000       0.32240000       0.08450000
    21  H          0.21780000       0.13860000       0.68650000
    22  H          0.78220000       0.63860000       0.81350000
    23  H          0.78220000       0.86140000       0.31350000
    24  H          0.21780000       0.36140000       0.18650000
    25  H          0.64460000       0.02280000       0.74750000
    26  H          0.35540000       0.52280000       0.75250000
    27  H          0.35540000       0.97720000       0.25250000
    28  H          0.64460000       0.47720000       0.24750000
