data_CEKGUU
_symmetry_space_group_name_H-M    'P1'
_symmetry_Int_Tables_number       1
loop_
_symmetry_equiv_pos_site_id
_symmetry_equiv_pos_as_xyz
1 x,y,z
_cell_length_a                   6.136629
_cell_length_b                   6.136629
_cell_length_c                   6.851628
_cell_angle_alpha                90.0
_cell_angle_beta                 90.0
_cell_angle_gamma                120.0
loop_
_atom_site_label
_atom_site_type_symbol
_atom_site_fract_x
_atom_site_fract_y
_atom_site_fract_z
     1  N          0.33333000       0.66667000       0.34010000
     2  N          0.66667000       0.33333000       0.65990000
     3  C          0.57546000       0.86815000       0.27271000
     4  C          0.13185000       0.70731000       0.27271000
     5  C          0.29269000       0.42454000       0.27271000
     6  C          0.42454000       0.13185000       0.72729000
     7  C          0.86815000       0.29269000       0.72729000
     8  C          0.70731000       0.57546000       0.72729000
     9  H          0.60000000       0.02300000       0.32120000
    10  H         -0.02300000       0.57700000       0.32120000
    11  H          0.42300000       0.40000000       0.32120000
    12  H          0.40000000      -0.02300000       0.67880000
    13  H          0.02300000       0.42300000       0.67880000
    14  H          0.57700000       0.60000000       0.67880000
    15  H          0.59650000       0.87680000       0.12960000
    16  H          0.12320000       0.71970000       0.12960000
    17  H          0.28030000       0.40350000       0.12960000
    18  H          0.40350000       0.12320000       0.87040000
    19  H          0.87680000       0.28030000       0.87040000
    20  H          0.71970000       0.59650000       0.87040000
    21  H          0.70800000       0.84200000       0.31930000
    22  H          0.15800000       0.86600000       0.31930000
    23  H          0.13400000       0.29200000       0.31930000
    24  H          0.29200000       0.15800000       0.68070000
    25  H          0.84200000       0.13400000       0.68070000
    26  H          0.86600000       0.70800000       0.68070000
