data_CIVXIO01
_symmetry_space_group_name_H-M    'P1'
_symmetry_Int_Tables_number       1
loop_
_symmetry_equiv_pos_site_id
_symmetry_equiv_pos_as_xyz
1 x,y,z
_cell_length_a                   8.6571
_cell_length_b                   6.4015
_cell_length_c                   6.0105
_cell_angle_alpha                90.0
_cell_angle_beta                 90.0
_cell_angle_gamma                90.0
loop_
_atom_site_label
_atom_site_type_symbol
_atom_site_fract_x
_atom_site_fract_y
_atom_site_fract_z
     1  C          0.87562000       0.23052000       0.57952000
     2  C          0.12438000       0.76948000       0.07952000
     3  C          0.37562000       0.26948000       0.92048000
     4  C          0.62438000       0.73052000       0.42048000
     5  C          0.12438000       0.76948000       0.42048000
     6  C          0.87562000       0.23052000       0.92048000
     7  C          0.62438000       0.73052000       0.07952000
     8  C          0.37562000       0.26948000       0.57952000
     9  C          0.93052000       0.38873000       0.75000000
    10  C          0.06948000       0.61127000       0.25000000
    11  C          0.43052000       0.11127000       0.75000000
    12  C          0.56948000       0.88873000       0.25000000
    13  O          0.84252000       0.07832000       0.75000000
    14  O          0.15748000       0.92168000       0.25000000
    15  O          0.34252000       0.42168000       0.75000000
    16  O          0.65748000       0.57832000       0.25000000
    17  H          0.95220000       0.17630000       0.47330000
    18  H          0.04780000       0.82370000       0.97330000
    19  H          0.45220000       0.32370000       0.02670000
    20  H          0.54780000       0.67630000       0.52670000
    21  H          0.04780000       0.82370000       0.52670000
    22  H          0.95220000       0.17630000       0.02670000
    23  H          0.54780000       0.67630000       0.97330000
    24  H          0.45220000       0.32370000       0.47330000
    25  H          0.78020000       0.26930000       0.49940000
    26  H          0.21980000       0.73070000      -0.00060000
    27  H          0.28020000       0.23070000       0.00060000
    28  H          0.71980000       0.76930000       0.50060000
    29  H          0.21980000       0.73070000       0.50060000
    30  H          0.78020000       0.26930000       0.00060000
    31  H          0.71980000       0.76930000      -0.00060000
    32  H          0.28020000       0.23070000       0.49940000
    33  H          0.04430000       0.41150000       0.75000000
    34  H          0.95570000       0.58850000       0.25000000
    35  H          0.54430000       0.08850000       0.75000000
    36  H          0.45570000       0.91150000       0.25000000
    37  H          0.87730000       0.52250000       0.75000000
    38  H          0.12270000       0.47750000       0.25000000
    39  H          0.37730000       0.97750000       0.75000000
    40  H          0.62270000       0.02250000       0.25000000
