data_CIWJAU
_symmetry_space_group_name_H-M    'P1'
_symmetry_Int_Tables_number       1
loop_
_symmetry_equiv_pos_site_id
_symmetry_equiv_pos_as_xyz
1 x,y,z
_cell_length_a                   10.682617
_cell_length_b                   9.363311
_cell_length_c                   4.07646
_cell_angle_alpha                90.0
_cell_angle_beta                 90.0
_cell_angle_gamma                90.0
loop_
_atom_site_label
_atom_site_type_symbol
_atom_site_fract_x
_atom_site_fract_y
_atom_site_fract_z
     1  C          0.50000000       0.00936000       0.62920000
     2  C         -0.00000000      -0.00936000       0.12920000
     3  C          0.43704000       0.24784000       0.91601600
     4  C          0.06296000       0.75216000       0.41601600
     5  C          0.93704000       0.75216000       0.41601600
     6  C          0.56296000       0.24784000       0.91601600
     7  C          0.43904000       0.52974000      -0.00798600
     8  C          0.06096000       0.47026000       0.49201400
     9  C          0.93904000       0.47026000       0.49201400
    10  C          0.56096000       0.52974000      -0.00798600
    11  H          0.39930000       0.61520000       0.94020000
    12  H          0.10070000       0.38480000       0.44020000
    13  H          0.89930000       0.38480000       0.44020000
    14  H          0.60070000       0.61520000       0.94020000
    15  S          0.50000000       0.85228000       0.45158000
    16  S          0.00000000       0.14772000       0.95158000
    17  S          0.36467130       0.10226130       0.72824000
    18  S          0.13532870       0.89773870       0.22824000
    19  S          0.86467130       0.89773870       0.22824000
    20  S          0.63532870       0.10226130       0.72824000
    21  S          0.34418120       0.38360120       0.08064000
    22  S          0.15581880       0.61639880       0.58064000
    23  S          0.84418120       0.61639880       0.58064000
    24  S          0.65581880       0.38360120       0.08064000
