data_CLANAC
_symmetry_space_group_name_H-M    'P1'
_symmetry_Int_Tables_number       1
loop_
_symmetry_equiv_pos_site_id
_symmetry_equiv_pos_as_xyz
1 x,y,z
_cell_length_a                   7.57552
_cell_length_b                   5.538901
_cell_length_c                   8.70462
_cell_angle_alpha                90.0
_cell_angle_beta                 104.0432
_cell_angle_gamma                90.0
loop_
_atom_site_label
_atom_site_type_symbol
_atom_site_fract_x
_atom_site_fract_y
_atom_site_fract_z
     1  Cl         0.33291600       0.14097900       0.55833500
     2  Cl         0.16708400       0.64097900       0.94166500
     3  Cl         0.66708400       0.85902100       0.44166500
     4  Cl         0.83291600       0.35902100       0.05833500
     5  O          0.02752000       0.13162000       0.71584180
     6  O          0.47248000       0.63162000       0.78415820
     7  O          0.97248000       0.86838000       0.28415820
     8  O          0.52752000       0.36838000       0.21584180
     9  O          0.25071180       0.55983000       0.33807160
    10  O          0.24928820       0.05983000       0.16192840
    11  O          0.74928820       0.44017000       0.66192840
    12  O          0.75071180       0.94017000       0.83807160
    13  C          0.15022000       0.33183000       0.52942000
    14  C          0.34978000       0.83183000       0.97058000
    15  C          0.84978000       0.66817000       0.47058000
    16  C          0.65022000       0.16817000       0.02942000
    17  C          0.13912000       0.52583000       0.41570190
    18  C          0.36088000       0.02583000       0.08429810
    19  C          0.86088000       0.47417000       0.58429810
    20  C          0.63912000       0.97417000       0.91570190
    21  C          0.02012000       0.30473000       0.60992000
    22  C          0.47988000       0.80473000       0.89008000
    23  C         -0.02012000       0.69527000       0.39008000
    24  C          0.52012000       0.19527000       0.10992000
    25  H          0.94170000       0.13760000       0.75540000
    26  H          0.55830000       0.63760000       0.74460000
    27  H          0.05830000       0.86240000       0.24460000
    28  H          0.44170000       0.36240000       0.25540000
