data_CLFORM
_symmetry_space_group_name_H-M    'P1'
_symmetry_Int_Tables_number       1
loop_
_symmetry_equiv_pos_site_id
_symmetry_equiv_pos_as_xyz
1 x,y,z
_cell_length_a                   7.4855
_cell_length_b                   9.4971
_cell_length_c                   5.8411
_cell_angle_alpha                90.0
_cell_angle_beta                 90.0
_cell_angle_gamma                90.0
loop_
_atom_site_label
_atom_site_type_symbol
_atom_site_fract_x
_atom_site_fract_y
_atom_site_fract_z
     1  Cl         0.18920000       0.09950000       0.14200000
     2  Cl         0.31080000       0.90050000       0.64200000
     3  Cl         0.68920000       0.40050000       0.35800000
     4  Cl         0.81080000       0.59950000       0.85800000
     5  Cl         0.81080000       0.90050000       0.85800000
     6  Cl         0.68920000       0.09950000       0.35800000
     7  Cl         0.31080000       0.59950000       0.64200000
     8  Cl         0.18920000       0.40050000       0.14200000
     9  Cl         0.10720000       0.25000000       0.72800000
    10  Cl         0.39280000       0.75000000       0.22800000
    11  Cl         0.60720000       0.25000000       0.77200000
    12  Cl         0.89280000       0.75000000       0.27200000
    13  C          0.09000000       0.25000000       0.02700000
    14  C          0.41000000       0.75000000       0.52700000
    15  C          0.59000000       0.25000000       0.47300000
    16  C          0.91000000       0.75000000       0.97300000
    17  H          0.95280000       0.25000000       0.07200000
    18  H          0.54720000       0.75000000       0.57200000
    19  H          0.45280000       0.25000000       0.42800000
    20  H          0.04720000       0.75000000       0.92800000
