data_CLMETH
_symmetry_space_group_name_H-M    'P1'
_symmetry_Int_Tables_number       1
loop_
_symmetry_equiv_pos_site_id
_symmetry_equiv_pos_as_xyz
1 x,y,z
_cell_length_a                   6.4951
_cell_length_b                   5.1391
_cell_length_c                   7.5231
_cell_angle_alpha                90.0
_cell_angle_beta                 90.0
_cell_angle_gamma                90.0
loop_
_atom_site_label
_atom_site_type_symbol
_atom_site_fract_x
_atom_site_fract_y
_atom_site_fract_z
     1  Cl         0.00000000       0.13510000       0.25000000
     2  Cl         0.50000000       0.63510000       0.25000000
     3  Cl        -0.00000000       0.86490000       0.75000000
     4  Cl         0.50000000       0.36490000       0.75000000
     5  C         -0.00000000       0.37990000       0.42210000
     6  C          0.50000000       0.87990000       0.42210000
     7  C         -0.00000000       0.62010000       0.92210000
     8  C          0.50000000       0.12010000       0.92210000
     9  H          0.00000000       0.57300000       0.36200000
    10  H          0.50000000       0.07300000       0.36200000
    11  H         -0.00000000       0.42700000       0.86200000
    12  H          0.50000000       0.92700000       0.86200000
    13  H          0.13700000       0.35700000       0.50400000
    14  H          0.63700000       0.85700000       0.50400000
    15  H          0.86300000       0.35700000       0.50400000
    16  H          0.36300000       0.85700000       0.50400000
    17  H          0.13700000       0.64300000       0.00400000
    18  H          0.63700000       0.14300000       0.00400000
    19  H          0.86300000       0.64300000       0.00400000
    20  H          0.36300000       0.14300000       0.00400000
