data_CUBANE
_symmetry_space_group_name_H-M    'P1'
_symmetry_Int_Tables_number       1
loop_
_symmetry_equiv_pos_site_id
_symmetry_equiv_pos_as_xyz
1 x,y,z
_cell_length_a                   5.34
_cell_length_b                   5.34
_cell_length_c                   5.34
_cell_angle_alpha                72.25
_cell_angle_beta                 72.25
_cell_angle_gamma                72.25
loop_
_atom_site_label
_atom_site_type_symbol
_atom_site_fract_x
_atom_site_fract_y
_atom_site_fract_z
     1  C          0.81289000       0.19519000       0.10706000
     2  C          0.10706000       0.81289000       0.19519000
     3  C          0.19519000       0.10706000       0.81289000
     4  C          0.18711000       0.80481000       0.89294000
     5  C          0.89294000       0.18711000       0.80481000
     6  C          0.80481000       0.89294000       0.18711000
     7  C          0.11546000       0.11546000       0.11546000
     8  C          0.88454000       0.88454000       0.88454000
     9  H          0.67540000       0.34680000       0.18480000
    10  H          0.18480000       0.67540000       0.34680000
    11  H          0.34680000       0.18480000       0.67540000
    12  H          0.32460000       0.65320000       0.81520000
    13  H          0.81520000       0.32460000       0.65320000
    14  H          0.65320000       0.81520000       0.32460000
    15  H          0.21000000       0.21000000       0.21000000
    16  H          0.79000000       0.79000000       0.79000000
