data_CUKCIU
_symmetry_space_group_name_H-M    'P1'
_symmetry_Int_Tables_number       1
loop_
_symmetry_equiv_pos_site_id
_symmetry_equiv_pos_as_xyz
1 x,y,z
_cell_length_a                   4.5847
_cell_length_b                   9.18313
_cell_length_c                   5.8181
_cell_angle_alpha                90.0
_cell_angle_beta                 99.6314
_cell_angle_gamma                90.0
loop_
_atom_site_label
_atom_site_type_symbol
_atom_site_fract_x
_atom_site_fract_y
_atom_site_fract_z
     1  O          0.94543000       0.08522000       0.19022000
     2  O          0.55457000       0.58522000       0.30978000
     3  O          0.05457000       0.91478000       0.80978000
     4  O          0.44543000       0.41478000       0.69022000
     5  C          0.15477000       0.96937000       0.21864000
     6  C          0.34523000       0.46937000       0.28136000
     7  C          0.84523000       0.03063000       0.78136000
     8  C          0.65477000       0.53063000       0.71864000
     9  C          0.92637000       0.14383000       0.96116000
    10  C          0.57363000       0.64383000       0.53884000
    11  C          0.07363000       0.85617000       0.03884000
    12  C          0.42637000       0.35617000       0.46116000
    13  H          0.36580000      -0.00140000       0.20350000
    14  H          0.13420000       0.49860000       0.29650000
    15  H          0.63420000       0.00140000       0.79650000
    16  H          0.86580000       0.50140000       0.70350000
    17  H          0.15750000       0.92270000       0.37950000
    18  H          0.34250000       0.42270000       0.12050000
    19  H          0.84250000       0.07730000       0.62050000
    20  H          0.65750000       0.57730000       0.87950000
    21  H          0.12360000       0.18030000       0.92550000
    22  H          0.37640000       0.68030000       0.57450000
    23  H          0.87640000       0.81970000       0.07450000
    24  H          0.62360000       0.31970000       0.42550000
    25  H          0.78350000       0.22030000       0.94460000
    26  H          0.71650000       0.72030000       0.55540000
    27  H          0.21650000       0.77970000       0.05540000
    28  H          0.28350000       0.27970000       0.44460000
