data_CYANAM01
_symmetry_space_group_name_H-M    'P1'
_symmetry_Int_Tables_number       1
loop_
_symmetry_equiv_pos_site_id
_symmetry_equiv_pos_as_xyz
1 x,y,z
_cell_length_a                   6.8561
_cell_length_b                   6.6281
_cell_length_c                   9.1471
_cell_angle_alpha                90.0
_cell_angle_beta                 90.0
_cell_angle_gamma                90.0
loop_
_atom_site_label
_atom_site_type_symbol
_atom_site_fract_x
_atom_site_fract_y
_atom_site_fract_z
     1  N          0.14591000       0.16991000       0.10179900
     2  N          0.35409000       0.83009000       0.60179900
     3  N          0.64591000       0.33009000       0.89820100
     4  N          0.85409000       0.66991000       0.39820100
     5  N          0.85409000       0.83009000       0.89820100
     6  N          0.64591000       0.16991000       0.39820100
     7  N          0.35409000       0.66991000       0.10179900
     8  N          0.14591000       0.33009000       0.60179900
     9  N          0.14011000       0.01251000       0.34609900
    10  N          0.35989000      -0.01251000       0.84609900
    11  N          0.64011000       0.48749000       0.65390100
    12  N          0.85989000       0.51251000       0.15390100
    13  N          0.85989000      -0.01251000       0.65390100
    14  N          0.64011000       0.01251000       0.15390100
    15  N          0.35989000       0.51251000       0.34609900
    16  N          0.14011000       0.48749000       0.84609900
    17  C          0.14121000       0.08371000       0.23121000
    18  C          0.35879000       0.91629000       0.73121000
    19  C          0.64121000       0.41629000       0.76879000
    20  C          0.85879000       0.58371000       0.26879000
    21  C          0.85879000       0.91629000       0.76879000
    22  C          0.64121000       0.08371000       0.26879000
    23  C          0.35879000       0.58371000       0.23121000
    24  C          0.14121000       0.41629000       0.73121000
    25  H          0.19720000       0.11120000       0.02210000
    26  H          0.30280000       0.88880000       0.52210000
    27  H          0.69720000       0.38880000       0.97790000
    28  H          0.80280000       0.61120000       0.47790000
    29  H          0.80280000       0.88880000       0.97790000
    30  H          0.69720000       0.11120000       0.47790000
    31  H          0.30280000       0.61120000       0.02210000
    32  H          0.19720000       0.38880000       0.52210000
    33  H          0.05920000       0.26620000       0.08710000
    34  H          0.44080000       0.73380000       0.58710000
    35  H          0.55920000       0.23380000       0.91290000
    36  H          0.94080000       0.76620000       0.41290000
    37  H          0.94080000       0.73380000       0.91290000
    38  H          0.55920000       0.26620000       0.41290000
    39  H          0.44080000       0.76620000       0.08710000
    40  H          0.05920000       0.23380000       0.58710000
