data_DAYBIO
_symmetry_space_group_name_H-M    'P1'
_symmetry_Int_Tables_number       1
loop_
_symmetry_equiv_pos_site_id
_symmetry_equiv_pos_as_xyz
1 x,y,z
_cell_length_a                   8.7812
_cell_length_b                   8.7812
_cell_length_c                   5.91687
_cell_angle_alpha                90.0
_cell_angle_beta                 90.0
_cell_angle_gamma                90.0
loop_
_atom_site_label
_atom_site_type_symbol
_atom_site_fract_x
_atom_site_fract_y
_atom_site_fract_z
     1  N          0.11272000       0.11272000       0.50000000
     2  N          0.38728000       0.61272000      -0.00000000
     3  N          0.88728000       0.88728000       0.50000000
     4  N          0.61272000       0.38728000      -0.00000000
     5  N          0.17682000       0.51042000       0.50000000
     6  N         -0.01042000       0.67682000      -0.00000000
     7  N          0.82318000       0.48958000       0.50000000
     8  N          0.01042000       0.32318000      -0.00000000
     9  N          0.67682000      -0.01042000       0.00000000
    10  N          0.48958000       0.82318000       0.50000000
    11  N          0.32318000       0.01042000      -0.00000000
    12  N          0.51042000       0.17682000       0.50000000
    13  C          0.22472000       0.22472000       0.50000000
    14  C          0.27528000       0.72472000      -0.00000000
    15  C          0.77528000       0.77528000       0.50000000
    16  C          0.72472000       0.27528000      -0.00000000
    17  C          0.18892000       0.38002000       0.50000000
    18  C          0.11998000       0.68892000      -0.00000000
    19  C          0.81108000       0.61998000       0.50000000
    20  C          0.88002000       0.31108000      -0.00000000
    21  C          0.68892000       0.11998000       0.00000000
    22  C          0.61998000       0.81108000       0.50000000
    23  C          0.31108000       0.88002000      -0.00000000
    24  C          0.38002000       0.18892000       0.50000000
    25  C          0.96078000       0.14892000       0.50000000
    26  C          0.35108000       0.46078000      -0.00000000
    27  C          0.03922000       0.85108000       0.50000000
    28  C          0.64892000       0.53922000      -0.00000000
    29  C          0.46078000       0.35108000      -0.00000000
    30  C          0.85108000       0.03922000       0.50000000
    31  C          0.53922000       0.64892000      -0.00000000
    32  C          0.14892000       0.96078000       0.50000000
    33  H          0.93697000       0.25703000       0.50000000
    34  H          0.24297000       0.43697000      -0.00000000
    35  H          0.06303000       0.74297000       0.50000000
    36  H          0.75703000       0.56303000      -0.00000000
    37  H          0.43697000       0.24297000      -0.00000000
    38  H          0.74297000       0.06303000       0.50000000
    39  H          0.56303000       0.75703000      -0.00000000
    40  H          0.25703000       0.93697000       0.50000000
