data_DCLETH02
_symmetry_space_group_name_H-M    'P1'
_symmetry_Int_Tables_number       1
loop_
_symmetry_equiv_pos_site_id
_symmetry_equiv_pos_as_xyz
1 x,y,z
_cell_length_a                   4.8192
_cell_length_b                   5.3493
_cell_length_c                   8.1493
_cell_angle_alpha                90.0
_cell_angle_beta                 102.263
_cell_angle_gamma                90.0
loop_
_atom_site_label
_atom_site_type_symbol
_atom_site_fract_x
_atom_site_fract_y
_atom_site_fract_z
     1  Cl         0.82153400       0.22208500       0.58389300
     2  Cl         0.17846600       0.72208500       0.91610700
     3  Cl         0.17846600       0.77791500       0.41610700
     4  Cl         0.82153400       0.27791500       0.08389300
     5  C          0.59541180       0.48787160       0.58556100
     6  C          0.40458820      -0.01212840       0.91443900
     7  C          0.40458820       0.51212840       0.41443900
     8  C          0.59541180       0.01212840       0.08556100
     9  H          0.72062700       0.62852800       0.61661500
    10  H          0.27937300       0.12852800       0.88338500
    11  H          0.27937300       0.37147200       0.38338500
    12  H          0.72062700       0.87147200       0.11661500
    13  H          0.49162800       0.45742400       0.66901800
    14  H          0.50837200       0.95742400       0.83098200
    15  H          0.50837200       0.54257600       0.33098200
    16  H          0.49162800       0.04257600       0.16901800
