data_DCLMET10
_symmetry_space_group_name_H-M    'P1'
_symmetry_Int_Tables_number       1
loop_
_symmetry_equiv_pos_site_id
_symmetry_equiv_pos_as_xyz
1 x,y,z
_cell_length_a                   4.2491
_cell_length_b                   8.1382
_cell_length_c                   9.4922
_cell_angle_alpha                90.0
_cell_angle_beta                 90.0
_cell_angle_gamma                90.0
loop_
_atom_site_label
_atom_site_type_symbol
_atom_site_fract_x
_atom_site_fract_y
_atom_site_fract_z
     1  Cl         0.18460000       0.15220000       0.11950000
     2  Cl         0.31540000       0.34780000       0.61950000
     3  Cl         0.68460000       0.34780000       0.88050000
     4  Cl         0.81540000       0.15220000       0.38050000
     5  Cl         0.81540000       0.84780000       0.88050000
     6  Cl         0.68460000       0.65220000       0.38050000
     7  Cl         0.31540000       0.65220000       0.11950000
     8  Cl         0.18460000       0.84780000       0.61950000
     9  C          0.00000000       0.03070000       0.25000000
    10  C          0.50000000       0.46930000       0.75000000
    11  C          0.00000000       0.96930000       0.75000000
    12  C          0.50000000       0.53070000       0.25000000
    13  H          0.17470000       0.96310000       0.28590000
    14  H          0.32530000       0.53690000       0.78590000
    15  H          0.67470000       0.53690000       0.71410000
    16  H          0.82530000       0.96310000       0.21410000
    17  H          0.82530000       0.03690000       0.71410000
    18  H          0.67470000       0.46310000       0.21410000
    19  H          0.32530000       0.46310000       0.28590000
    20  H          0.17470000       0.03690000       0.78590000
