data_DCLMET12
_symmetry_space_group_name_H-M    'P1'
_symmetry_Int_Tables_number       1
loop_
_symmetry_equiv_pos_site_id
_symmetry_equiv_pos_as_xyz
1 x,y,z
_cell_length_a                   3.92401
_cell_length_b                   7.7932
_cell_length_c                   9.3352
_cell_angle_alpha                90.0
_cell_angle_beta                 90.0
_cell_angle_gamma                90.0
loop_
_atom_site_label
_atom_site_type_symbol
_atom_site_fract_x
_atom_site_fract_y
_atom_site_fract_z
     1  Cl         0.19034000       0.14808170       0.11564000
     2  Cl         0.30966000       0.35191830       0.61564000
     3  Cl         0.80966000       0.14808170       0.38436000
     4  Cl         0.69034000       0.35191830       0.88436000
     5  Cl         0.80966000       0.85191830       0.88436000
     6  Cl         0.69034000       0.64808170       0.38436000
     7  Cl         0.19034000       0.85191830       0.61564000
     8  Cl         0.30966000       0.64808170       0.11564000
     9  C         -0.00000000       0.02028000       0.25000000
    10  C          0.50000000       0.47972000       0.75000000
    11  C          0.00000000       0.97972000       0.75000000
    12  C          0.50000000       0.52028000       0.25000000
    13  H          0.18119000       0.92810000       0.31200000
    14  H          0.31881000       0.57190000       0.81200000
    15  H          0.81881000       0.92810000       0.18800000
    16  H          0.68119000       0.57190000       0.68800000
    17  H          0.81881000       0.07190000       0.68800000
    18  H          0.68119000       0.42810000       0.18800000
    19  H          0.18119000       0.07190000       0.81200000
    20  H          0.31881000       0.42810000       0.31200000
    21  H          0.81881000       0.92810000       0.19200000
    22  H          0.68119000       0.57190000       0.69200000
    23  H          0.18119000       0.92810000       0.30800000
    24  H          0.31881000       0.57190000       0.80800000
    25  H          0.18119000       0.07190000       0.80800000
    26  H          0.31881000       0.42810000       0.30800000
    27  H          0.81881000       0.07190000       0.69200000
    28  H          0.68119000       0.42810000       0.19200000
