data_DHXBZQ
_symmetry_space_group_name_H-M    'P1'
_symmetry_Int_Tables_number       1
loop_
_symmetry_equiv_pos_site_id
_symmetry_equiv_pos_as_xyz
1 x,y,z
_cell_length_a                   7.800814
_cell_length_b                   6.940513
_cell_length_c                   9.98719
_cell_angle_alpha                90.0
_cell_angle_beta                 90.0441
_cell_angle_gamma                90.0
loop_
_atom_site_label
_atom_site_type_symbol
_atom_site_fract_x
_atom_site_fract_y
_atom_site_fract_z
     1  O          0.29177000       0.52886000       0.71041000
     2  O          0.79177000       0.02886000       0.71041000
     3  O          0.70823000       0.52886000       0.78959000
     4  O          0.20823000       0.02886000       0.78959000
     5  O          0.70823000       0.47114000       0.28959000
     6  O          0.20823000       0.97114000       0.28959000
     7  O          0.29177000       0.47114000       0.21041000
     8  O          0.79177000       0.97114000       0.21041000
     9  O          0.39971000       0.85335000       0.59537000
    10  O          0.89971000       0.35335000       0.59537000
    11  O          0.60029000       0.85335000       0.90463000
    12  O          0.10029000       0.35335000       0.90463000
    13  O          0.60029000       0.14665000       0.40463000
    14  O          0.10029000       0.64665000       0.40463000
    15  O          0.39971000       0.14665000       0.09537000
    16  O          0.89971000       0.64665000       0.09537000
    17  C          0.38803000       0.50691000       0.61200000
    18  C          0.88803000       0.00691000       0.61200000
    19  C          0.61197000       0.50691000       0.88800000
    20  C          0.11197000       0.00691000       0.88800000
    21  C          0.61197000       0.49309000       0.38800000
    22  C          0.11197000      -0.00691000       0.38800000
    23  C          0.38803000       0.49309000       0.11200000
    24  C          0.88803000      -0.00691000       0.11200000
    25  C          0.45295000       0.68613000       0.54469000
    26  C          0.95295000       0.18613000       0.54469000
    27  C          0.54705000       0.68613000       0.95531000
    28  C          0.04705000       0.18613000       0.95531000
    29  C          0.54705000       0.31387000       0.45531000
    30  C          0.04705000       0.81387000       0.45531000
    31  C          0.45295000       0.31387000       0.04469000
    32  C          0.95295000       0.81387000       0.04469000
    33  C          0.44123000       0.32158000       0.56301000
    34  C          0.94123000       0.82158000       0.56301000
    35  C          0.55877000       0.32158000       0.93699000
    36  C          0.05877000       0.82158000       0.93699000
    37  C          0.55877000       0.67842000       0.43699000
    38  C          0.05877000       0.17842000       0.43699000
    39  C          0.44123000       0.67842000       0.06301000
    40  C          0.94123000       0.17842000       0.06301000
    41  H          0.33970000       0.83720000       0.66020000
    42  H          0.83970000       0.33720000       0.66020000
    43  H          0.66030000       0.83720000       0.83980000
    44  H          0.16030000       0.33720000       0.83980000
    45  H          0.66030000       0.16280000       0.33980000
    46  H          0.16030000       0.66280000       0.33980000
    47  H          0.33970000       0.16280000       0.16020000
    48  H          0.83970000       0.66280000       0.16020000
    49  H          0.40300000       0.21070000       0.60880000
    50  H          0.90300000       0.71070000       0.60880000
    51  H          0.59700000       0.21070000       0.89120000
    52  H          0.09700000       0.71070000       0.89120000
    53  H          0.59700000       0.78930000       0.39120000
    54  H          0.09700000       0.28930000       0.39120000
    55  H          0.40300000       0.78930000       0.10880000
    56  H          0.90300000       0.28930000       0.10880000
