data_DIACET
_symmetry_space_group_name_H-M    'P1'
_symmetry_Int_Tables_number       1
loop_
_symmetry_equiv_pos_site_id
_symmetry_equiv_pos_as_xyz
1 x,y,z
_cell_length_a                   15.683
_cell_length_b                   15.683
_cell_length_c                   4.301
_cell_angle_alpha                90.0
_cell_angle_beta                 90.0
_cell_angle_gamma                90.0
loop_
_atom_site_label
_atom_site_type_symbol
_atom_site_fract_x
_atom_site_fract_y
_atom_site_fract_z
     1  C          0.20900000       0.02370000       0.04560000
     2  C          0.97630000       0.70900000       0.54560000
     3  C          0.29100000       0.47630000       0.04560000
     4  C          0.52370000       0.79100000       0.54560000
     5  C          0.79100000       0.97630000       0.95440000
     6  C          0.02370000       0.29100000       0.45440000
     7  C          0.70900000       0.52370000       0.95440000
     8  C          0.47630000       0.20900000       0.45440000
     9  C          0.25990000       0.97290000       0.95520000
    10  C          0.02710000       0.75990000       0.45520000
    11  C          0.24010000       0.52710000       0.95520000
    12  C          0.47290000       0.74010000       0.45520000
    13  C          0.74010000       0.02710000       0.04480000
    14  C          0.97290000       0.24010000       0.54480000
    15  C          0.75990000       0.47290000       0.04480000
    16  C          0.52710000       0.25990000       0.54480000
    17  I          0.12420000       0.10830000       0.19630000
    18  I          0.89170000       0.62420000       0.69630000
    19  I          0.37580000       0.39170000       0.19630000
    20  I          0.60830000       0.87580000       0.69630000
    21  I          0.87580000       0.89170000       0.80370000
    22  I          0.10830000       0.37580000       0.30370000
    23  I          0.62420000       0.60830000       0.80370000
    24  I          0.39170000       0.12420000       0.30370000
    25  I          0.34470000       0.88840000       0.80450000
    26  I          0.11160000       0.84470000       0.30450000
    27  I          0.15530000       0.61160000       0.80450000
    28  I          0.38840000       0.65530000       0.30450000
    29  I          0.65530000       0.11160000       0.19550000
    30  I          0.88840000       0.15530000       0.69550000
    31  I          0.84470000       0.38840000       0.19550000
    32  I          0.61160000       0.34470000       0.69550000
