data_DIMETH02
_symmetry_space_group_name_H-M    'P1'
_symmetry_Int_Tables_number       1
loop_
_symmetry_equiv_pos_site_id
_symmetry_equiv_pos_as_xyz
1 x,y,z
_cell_length_a                   7.145011
_cell_length_b                   12.936325
_cell_length_c                   4.68439
_cell_angle_alpha                90.0
_cell_angle_beta                 90.0
_cell_angle_gamma                90.0
loop_
_atom_site_label
_atom_site_type_symbol
_atom_site_fract_x
_atom_site_fract_y
_atom_site_fract_z
     1  C         -0.00000000       0.00000000       0.00000000
     2  C         -0.00000000       0.50000000       0.50000000
     3  C          0.50000000       0.00000000       0.50000000
     4  C          0.50000000       0.50000000       0.00000000
     5  H          0.13151500       0.00000000       0.86774000
     6  H          0.13151500       0.50000000       0.36774000
     7  H          0.63151500       0.00000000       0.36774000
     8  H          0.63151500       0.50000000       0.86774000
     9  H          0.86848500       0.00000000       0.86774000
    10  H          0.86848500       0.50000000       0.36774000
    11  H          0.36848500       0.00000000       0.36774000
    12  H          0.36848500       0.50000000       0.86774000
    13  I          0.00000000       0.13885000       0.24952000
    14  I          0.00000000       0.63885000       0.74952000
    15  I          0.50000000       0.13885000       0.74952000
    16  I          0.50000000       0.63885000       0.24952000
    17  I          0.00000000       0.86115000       0.24952000
    18  I         -0.00000000       0.36115000       0.74952000
    19  I          0.50000000       0.86115000       0.74952000
    20  I          0.50000000       0.36115000       0.24952000
