data_DISZIO
_symmetry_space_group_name_H-M    'P1'
_symmetry_Int_Tables_number       1
loop_
_symmetry_equiv_pos_site_id
_symmetry_equiv_pos_as_xyz
1 x,y,z
_cell_length_a                   8.1673
_cell_length_b                   6.7123
_cell_length_c                   5.5422
_cell_angle_alpha                90.0
_cell_angle_beta                 91.872
_cell_angle_gamma                90.0
loop_
_atom_site_label
_atom_site_type_symbol
_atom_site_fract_x
_atom_site_fract_y
_atom_site_fract_z
     1  Cl         0.13811000       0.04732000       0.78222000
     2  Cl         0.86189000       0.54732000       0.71778000
     3  Cl         0.86189000       0.95268000       0.21778000
     4  Cl         0.13811000       0.45268000       0.28222000
     5  C          0.26554000       0.97485000       0.54586000
     6  C          0.73446000       0.47485000       0.95414000
     7  C          0.73446000       0.02515000       0.45414000
     8  C          0.26554000       0.52515000       0.04586000
     9  C          0.44063000       0.03664000       0.59365000
    10  C          0.55937000       0.53664000       0.90635000
    11  C          0.55937000       0.96336000       0.40635000
    12  C          0.44063000       0.46336000       0.09365000
    13  O          0.48843000       0.13533000       0.76334000
    14  O          0.51157000       0.63533000       0.73666000
    15  O          0.51157000       0.86467000       0.23666000
    16  O          0.48843000       0.36467000       0.26334000
    17  H          0.22940000       0.02860000       0.38460000
    18  H          0.77060000       0.52860000       0.11540000
    19  H          0.77060000       0.97140000       0.61540000
    20  H          0.22940000       0.47140000       0.88460000
    21  H          0.25150000       0.84340000       0.53270000
    22  H          0.74850000       0.34340000       0.96730000
    23  H          0.74850000       0.15660000       0.46730000
    24  H          0.25150000       0.65660000       0.03270000
