data_DITHAN01
_symmetry_space_group_name_H-M    'P1'
_symmetry_Int_Tables_number       1
loop_
_symmetry_equiv_pos_site_id
_symmetry_equiv_pos_as_xyz
1 x,y,z
_cell_length_a                   6.75601
_cell_length_b                   5.4535
_cell_length_c                   7.8402
_cell_angle_alpha                90.0
_cell_angle_beta                 92.612
_cell_angle_gamma                90.0
loop_
_atom_site_label
_atom_site_type_symbol
_atom_site_fract_x
_atom_site_fract_y
_atom_site_fract_z
     1  S          0.21889150       0.15872180       0.03902130
     2  S          0.28110850       0.65872180       0.46097870
     3  S          0.78110850       0.84127820       0.96097870
     4  S          0.71889150       0.34127820       0.53902130
     5  C         -0.00347000       0.18078000       0.15425000
     6  C          0.50347000       0.68078000       0.34575000
     7  C          0.00347000       0.81922000       0.84575000
     8  C          0.49653000       0.31922000       0.65425000
     9  C          0.19027000       0.85202000       0.95574000
    10  C          0.30973000       0.35202000       0.54426000
    11  C          0.80973000       0.14798000       0.04426000
    12  C          0.69027000       0.64798000       0.45574000
    13  H          0.00460000       0.07870000       0.24350000
    14  H          0.49540000       0.57870000       0.25650000
    15  H         -0.00460000       0.92130000       0.75650000
    16  H          0.50460000       0.42130000       0.74350000
    17  H          0.00060000       0.34170000       0.19350000
    18  H          0.49940000       0.84170000       0.30650000
    19  H         -0.00060000       0.65830000       0.80650000
    20  H          0.50060000       0.15830000       0.69350000
    21  H          0.30160000       0.83030000       0.88750000
    22  H          0.19840000       0.33030000       0.61250000
    23  H          0.69840000       0.16970000       0.11250000
    24  H          0.80160000       0.66970000       0.38750000
    25  H          0.19160000       0.73810000       0.04650000
    26  H          0.30840000       0.23810000       0.45350000
    27  H          0.80840000       0.26190000       0.95350000
    28  H          0.69160000       0.76190000       0.54650000
