data_DIUREA04
_symmetry_space_group_name_H-M    'P1'
_symmetry_Int_Tables_number       1
loop_
_symmetry_equiv_pos_site_id
_symmetry_equiv_pos_as_xyz
1 x,y,z
_cell_length_a                   7.3751
_cell_length_b                   7.3732
_cell_length_c                   10.5671
_cell_angle_alpha                90.0
_cell_angle_beta                 90.0
_cell_angle_gamma                90.0
loop_
_atom_site_label
_atom_site_type_symbol
_atom_site_fract_x
_atom_site_fract_y
_atom_site_fract_z
     1  O          0.00000000       0.77668500       0.53488300
     2  O          0.50000000       0.27668500       0.53488300
     3  O         -0.00000000       0.22331500       0.03488300
     4  O          0.50000000       0.72331500       0.03488300
     5  O         -0.00000000       0.22331500       0.46511700
     6  O          0.50000000       0.72331500       0.46511700
     7  O          0.00000000       0.77668500       0.96511700
     8  O          0.50000000       0.27668500       0.96511700
     9  N          0.14978400       0.64804500       0.36503300
    10  N          0.64978400       0.14804500       0.36503300
    11  N          0.85021600       0.35195500       0.86503300
    12  N          0.35021600       0.85195500       0.86503300
    13  N          0.14978400       0.35195500       0.63496700
    14  N          0.64978400       0.85195500       0.63496700
    15  N          0.85021600       0.64804500       0.13496700
    16  N          0.35021600       0.14804500       0.13496700
    17  N          0.85021600       0.35195500       0.63496700
    18  N          0.35021600       0.85195500       0.63496700
    19  N          0.14978400       0.64804500       0.13496700
    20  N          0.64978400       0.14804500       0.13496700
    21  N          0.85021600       0.64804500       0.36503300
    22  N          0.35021600       0.14804500       0.36503300
    23  N          0.14978400       0.35195500       0.86503300
    24  N          0.64978400       0.85195500       0.86503300
    25  C         -0.00000000       0.69795200       0.43049100
    26  C          0.50000000       0.19795200       0.43049100
    27  C         -0.00000000       0.30204800       0.93049100
    28  C          0.50000000       0.80204800       0.93049100
    29  C          0.00000000       0.30204800       0.56950900
    30  C          0.50000000       0.80204800       0.56950900
    31  C          0.00000000       0.69795200       0.06950900
    32  C          0.50000000       0.19795200       0.06950900
    33  C          0.10616200       0.55130200       0.25000000
    34  C          0.60616200       0.05130200       0.25000000
    35  C          0.89383800       0.44869800       0.75000000
    36  C          0.39383800       0.94869800       0.75000000
    37  C          0.10616200       0.44869800       0.75000000
    38  C          0.60616200       0.94869800       0.75000000
    39  C          0.89383800       0.55130200       0.25000000
    40  C          0.39383800       0.05130200       0.25000000
    41  H          0.27549000       0.66086000       0.40036000
    42  H          0.77549000       0.16086000       0.40036000
    43  H          0.72451000       0.33914000       0.90036000
    44  H          0.22451000       0.83914000       0.90036000
    45  H          0.27549000       0.33914000       0.59964000
    46  H          0.77549000       0.83914000       0.59964000
    47  H          0.72451000       0.66086000       0.09964000
    48  H          0.22451000       0.16086000       0.09964000
    49  H          0.72451000       0.33914000       0.59964000
    50  H          0.22451000       0.83914000       0.59964000
    51  H          0.27549000       0.66086000       0.09964000
    52  H          0.77549000       0.16086000       0.09964000
    53  H          0.72451000       0.66086000       0.40036000
    54  H          0.22451000       0.16086000       0.40036000
    55  H          0.27549000       0.33914000       0.90036000
    56  H          0.77549000       0.83914000       0.90036000
    57  H          0.16374000       0.41513000       0.25000000
    58  H          0.66374000       0.91513000       0.25000000
    59  H          0.83626000       0.58487000       0.75000000
    60  H          0.33626000       0.08487000       0.75000000
    61  H          0.16374000       0.58487000       0.75000000
    62  H          0.66374000       0.08487000       0.75000000
    63  H          0.83626000       0.41513000       0.25000000
    64  H          0.33626000       0.91513000       0.25000000
