data_DMKETD02
_symmetry_space_group_name_H-M    'P1'
_symmetry_Int_Tables_number       1
loop_
_symmetry_equiv_pos_site_id
_symmetry_equiv_pos_as_xyz
1 x,y,z
_cell_length_a                   6.4931
_cell_length_b                   10.1941
_cell_length_c                   6.4362
_cell_angle_alpha                90.0
_cell_angle_beta                 101.71
_cell_angle_gamma                90.0
loop_
_atom_site_label
_atom_site_type_symbol
_atom_site_fract_x
_atom_site_fract_y
_atom_site_fract_z
     1  C          0.11430000      -0.00000000       0.90570000
     2  C          0.61430000       0.50000000       0.90570000
     3  C          0.88570000      -0.00000000       0.09430000
     4  C          0.38570000       0.50000000       0.09430000
     5  C          0.12890000      -0.00000000       0.14230000
     6  C          0.62890000       0.50000000       0.14230000
     7  C          0.87110000      -0.00000000       0.85770000
     8  C          0.37110000       0.50000000       0.85770000
     9  C          0.22890000       0.12310000       0.25480000
    10  C          0.72890000       0.62310000       0.25480000
    11  C          0.77110000       0.12310000       0.74520000
    12  C          0.27110000       0.62310000       0.74520000
    13  C          0.77110000       0.87690000       0.74520000
    14  C          0.27110000       0.37690000       0.74520000
    15  C          0.22890000       0.87690000       0.25480000
    16  C          0.72890000       0.37690000       0.25480000
    17  H          0.20160000       0.20260000       0.19540000
    18  H          0.70160000       0.70260000       0.19540000
    19  H          0.79840000       0.20260000       0.80460000
    20  H          0.29840000       0.70260000       0.80460000
    21  H          0.79840000       0.79740000       0.80460000
    22  H          0.29840000       0.29740000       0.80460000
    23  H          0.20160000       0.79740000       0.19540000
    24  H          0.70160000       0.29740000       0.19540000
    25  H          0.35000000       0.10130000       0.33610000
    26  H          0.85000000       0.60130000       0.33610000
    27  H          0.65000000       0.10130000       0.66390000
    28  H          0.15000000       0.60130000       0.66390000
    29  H          0.65000000       0.89870000       0.66390000
    30  H          0.15000000       0.39870000       0.66390000
    31  H          0.35000000       0.89870000       0.33610000
    32  H          0.85000000       0.39870000       0.33610000
    33  H          0.17910000       0.13510000       0.38900000
    34  H          0.67910000       0.63510000       0.38900000
    35  H          0.82090000       0.13510000       0.61100000
    36  H          0.32090000       0.63510000       0.61100000
    37  H          0.82090000       0.86490000       0.61100000
    38  H          0.32090000       0.36490000       0.61100000
    39  H          0.17910000       0.86490000       0.38900000
    40  H          0.67910000       0.36490000       0.38900000
    41  O          0.23880000      -0.00000000       0.79280000
    42  O          0.73880000       0.50000000       0.79280000
    43  O          0.76120000      -0.00000000       0.20720000
    44  O          0.26120000       0.50000000       0.20720000
