data_DOXABR12
_symmetry_space_group_name_H-M    'P1'
_symmetry_Int_Tables_number       1
loop_
_symmetry_equiv_pos_site_id
_symmetry_equiv_pos_as_xyz
1 x,y,z
_cell_length_a                   9.57037
_cell_length_b                   8.96748
_cell_length_c                   4.17384
_cell_angle_alpha                90.0
_cell_angle_beta                 91.0258
_cell_angle_gamma                90.0
loop_
_atom_site_label
_atom_site_type_symbol
_atom_site_fract_x
_atom_site_fract_y
_atom_site_fract_z
     1  Br         0.11307300       0.50000000       0.09990800
     2  Br         0.88692700       0.50000000       0.90009200
     3  Br         0.61307300      -0.00000000       0.09990800
     4  Br         0.38692700      -0.00000000       0.90009200
     5  O          0.37773000       0.50000000       0.31387000
     6  O          0.62227000       0.50000000       0.68613000
     7  O          0.87773000      -0.00000000       0.31387000
     8  O          0.12227000      -0.00000000       0.68613000
     9  C          0.42222000       0.37033000       0.48257000
    10  C          0.57778000       0.37033000       0.51743000
    11  C          0.92222000       0.87033000       0.48257000
    12  C          0.07778000       0.87033000       0.51743000
    13  C          0.57778000       0.62967000       0.51743000
    14  C          0.42222000       0.62967000       0.48257000
    15  C          0.07778000       0.12967000       0.51743000
    16  C          0.92222000       0.12967000       0.48257000
    17  H          0.39120900       0.28015400       0.36427800
    18  H          0.60879100       0.28015400       0.63572200
    19  H          0.89120900       0.78015400       0.36427800
    20  H          0.10879100       0.78015400       0.63572200
    21  H          0.60879100       0.71984600       0.63572200
    22  H          0.39120900       0.71984600       0.36427800
    23  H          0.10879100       0.21984600       0.63572200
    24  H          0.89120900       0.21984600       0.36427800
    25  H          0.37956700       0.36848100       0.69689200
    26  H          0.62043300       0.36848100       0.30310800
    27  H          0.87956700       0.86848100       0.69689200
    28  H          0.12043300       0.86848100       0.30310800
    29  H          0.62043300       0.63151900       0.30310800
    30  H          0.37956700       0.63151900       0.69689200
    31  H          0.12043300       0.13151900       0.30310800
    32  H          0.87956700       0.13151900       0.69689200
