data_DUCKOB04
_symmetry_space_group_name_H-M    'P1'
_symmetry_Int_Tables_number       1
loop_
_symmetry_equiv_pos_site_id
_symmetry_equiv_pos_as_xyz
1 x,y,z
_cell_length_a                   5.702715
_cell_length_b                   5.524715
_cell_length_c                   8.3892
_cell_angle_alpha                90.0
_cell_angle_beta                 115.222
_cell_angle_gamma                90.0
loop_
_atom_site_label
_atom_site_type_symbol
_atom_site_fract_x
_atom_site_fract_y
_atom_site_fract_z
     1  C          0.22566000       0.23585000       0.44224000
     2  C          0.77434000       0.73585000       0.05776000
     3  C          0.77434000       0.76415000       0.55776000
     4  C          0.22566000       0.26415000       0.94224000
     5  H          0.15666000       0.31435000       0.51804000
     6  H          0.84334000       0.81435000      -0.01804000
     7  H          0.84334000       0.68565000       0.48196000
     8  H          0.15666000       0.18565000       0.01804000
     9  H          0.08696000       0.14535000       0.34894000
    10  H          0.91304000       0.64535000       0.15106000
    11  H          0.91304000       0.85465000       0.65106000
    12  H          0.08696000       0.35465000       0.84894000
    13  H          0.29366000       0.35925000       0.38914000
    14  H          0.70634000       0.85925000       0.11086000
    15  H          0.70634000       0.64075000       0.61086000
    16  H          0.29366000       0.14075000       0.88914000
    17  C          0.44178000       0.06358000       0.55134000
    18  C          0.55822000       0.56358000       0.94866000
    19  C          0.55822000       0.93642000       0.44866000
    20  C          0.44178000       0.43642000       0.05134000
    21  H          0.57878000       0.15598000       0.64694000
    22  H          0.42122000       0.65598000       0.85306000
    23  H          0.42122000       0.84402000       0.35306000
    24  H          0.57878000       0.34402000       0.14694000
    25  H          0.37228000       0.94212000       0.60674000
    26  H          0.62772000       0.44212000       0.89326000
    27  H          0.62772000       0.05788000       0.39326000
    28  H          0.37228000       0.55788000       0.10674000
