data_DUFBOV10
_symmetry_space_group_name_H-M    'P1'
_symmetry_Int_Tables_number       1
loop_
_symmetry_equiv_pos_site_id
_symmetry_equiv_pos_as_xyz
1 x,y,z
_cell_length_a                   4.6454
_cell_length_b                   8.4076
_cell_length_c                   6.6647
_cell_angle_alpha                90.0
_cell_angle_beta                 100.008
_cell_angle_gamma                90.0
loop_
_atom_site_label
_atom_site_type_symbol
_atom_site_fract_x
_atom_site_fract_y
_atom_site_fract_z
     1  O          0.88434000       0.32832000       0.87213000
     2  O          0.61566000       0.82832000       0.62787000
     3  O          0.11566000       0.67168000       0.12787000
     4  O          0.38434000       0.17168000       0.37213000
     5  C          0.85566000       0.43733000       0.70584000
     6  C          0.64434000       0.93733000       0.79416000
     7  C          0.14434000       0.56267000       0.29416000
     8  C          0.35566000       0.06267000       0.20584000
     9  C          0.13407000       0.36463000       0.78045000
    10  C          0.36593000       0.86463000       0.71955000
    11  C          0.86593000       0.63537000       0.21955000
    12  C          0.63407000       0.13537000       0.28045000
    13  H          0.75070000       0.38630000       0.58650000
    14  H          0.74930000       0.88630000       0.91350000
    15  H          0.24930000       0.61370000       0.41350000
    16  H          0.25070000       0.11370000       0.08650000
    17  H          0.83160000       0.54240000       0.74640000
    18  H          0.66840000       0.04240000       0.75360000
    19  H          0.16840000       0.45760000       0.25360000
    20  H          0.33160000       0.95760000       0.24640000
    21  H          0.28070000       0.43430000       0.86050000
    22  H          0.21930000       0.93430000       0.63950000
    23  H          0.71930000       0.56570000       0.13950000
    24  H          0.78070000       0.06570000       0.36050000
    25  H          0.18060000       0.28140000       0.69950000
    26  H          0.31940000       0.78140000       0.80050000
    27  H          0.81940000       0.71860000       0.30050000
    28  H          0.68060000       0.21860000       0.19950000
