data_ELIQIZ02
_symmetry_space_group_name_H-M    'P1'
_symmetry_Int_Tables_number       1
loop_
_symmetry_equiv_pos_site_id
_symmetry_equiv_pos_as_xyz
1 x,y,z
_cell_length_a                   8.194512
_cell_length_b                   8.194512
_cell_length_c                   8.054116
_cell_angle_alpha                90.0
_cell_angle_beta                 90.0
_cell_angle_gamma                120.0
loop_
_atom_site_label
_atom_site_type_symbol
_atom_site_fract_x
_atom_site_fract_y
_atom_site_fract_z
     1  C          0.00000000       0.00000000       0.42858000
     2  C         -0.00000000      -0.00000000       0.57142000
     3  C          0.66666667       0.33333333       0.76191333
     4  C          0.66666667       0.33333333       0.90475333
     5  C          0.33333333       0.66666667       0.09524667
     6  C          0.33333333       0.66666667       0.23808667
     7  H         -0.00000000      -0.00000000       0.30712000
     8  H          0.00000000       0.00000000       0.69288000
     9  H          0.66666667       0.33333333       0.64045333
    10  H          0.66666667       0.33333333       0.02621333
    11  H          0.33333333       0.66666667       0.97378667
    12  H          0.33333333       0.66666667       0.35954667
    13  C         -0.00000000       0.83175000       0.00000000
    14  C          0.16825000       0.16825000      -0.00000000
    15  C          0.83175000      -0.00000000       0.00000000
    16  C          0.66666667       0.16508333       0.33333333
    17  C          0.83491667       0.50158333       0.33333333
    18  C          0.49841667       0.33333333       0.33333333
    19  C          0.33333333       0.49841667       0.66666667
    20  C          0.50158333       0.83491667       0.66666667
    21  C          0.16508333       0.66666667       0.66666667
    22  C          0.00000000       0.16825000      -0.00000000
    23  C          0.83175000       0.83175000       0.00000000
    24  C          0.16825000       0.00000000      -0.00000000
    25  C          0.33333333       0.83491667       0.66666667
    26  C          0.16508333       0.49841667       0.66666667
    27  C          0.50158333       0.66666667       0.66666667
    28  C          0.66666667       0.50158333       0.33333333
    29  C          0.49841667       0.16508333       0.33333333
    30  C          0.83491667       0.33333333       0.33333333
    31  H         -0.00000000       0.70440000       0.00000000
    32  H          0.29560000       0.29560000      -0.00000000
    33  H          0.70440000      -0.00000000       0.00000000
    34  H          0.66666667       0.03773333       0.33333333
    35  H          0.96226667       0.62893333       0.33333333
    36  H          0.37106667       0.33333333       0.33333333
    37  H          0.33333333       0.37106667       0.66666667
    38  H          0.62893333       0.96226667       0.66666667
    39  H          0.03773333       0.66666667       0.66666667
    40  H          0.00000000       0.29560000      -0.00000000
    41  H          0.70440000       0.70440000       0.00000000
    42  H          0.29560000       0.00000000      -0.00000000
    43  H          0.33333333       0.96226667       0.66666667
    44  H          0.03773333       0.37106667       0.66666667
    45  H          0.62893333       0.66666667       0.66666667
    46  H          0.66666667       0.62893333       0.33333333
    47  H          0.37106667       0.03773333       0.33333333
    48  H          0.96226667       0.33333333       0.33333333
