data_ETDIAM18
_symmetry_space_group_name_H-M    'P1'
_symmetry_Int_Tables_number       1
loop_
_symmetry_equiv_pos_site_id
_symmetry_equiv_pos_as_xyz
1 x,y,z
_cell_length_a                   5.103
_cell_length_b                   5.2122
_cell_length_c                   7.26212
_cell_angle_alpha                90.0
_cell_angle_beta                 111.64
_cell_angle_gamma                90.0
loop_
_atom_site_label
_atom_site_type_symbol
_atom_site_fract_x
_atom_site_fract_y
_atom_site_fract_z
     1  N          0.82430000       0.70768000       0.62489000
     2  N          0.17570000       0.20768000       0.87511000
     3  N          0.17570000       0.29232000       0.37511000
     4  N          0.82430000       0.79232000       0.12489000
     5  H          0.90580000       0.74990000       0.52800000
     6  H          0.09420000       0.24990000       0.97200000
     7  H          0.09420000       0.25010000       0.47200000
     8  H          0.90580000       0.75010000       0.02800000
     9  H          0.93380000       0.56020000       0.67800000
    10  H          0.06620000       0.06020000       0.82200000
    11  H          0.06620000       0.43980000       0.32200000
    12  H          0.93380000       0.93980000       0.17800000
    13  C          0.53630000       0.61658000       0.56731000
    14  C          0.46370000       0.11658000       0.93269000
    15  C          0.46370000       0.38342000       0.43269000
    16  C          0.53630000       0.88342000       0.06731000
    17  H          0.40940000       0.75500000       0.50090000
    18  H          0.59060000       0.25500000      -0.00090000
    19  H          0.59060000       0.24500000       0.49910000
    20  H          0.40940000       0.74500000       0.00090000
    21  H          0.50080000       0.57520000       0.68640000
    22  H          0.49920000       0.07520000       0.81360000
    23  H          0.49920000       0.42480000       0.31360000
    24  H          0.50080000       0.92480000       0.18640000
