data_ETDIAM01
_symmetry_space_group_name_H-M    'P1'
_symmetry_Int_Tables_number       1
loop_
_symmetry_equiv_pos_site_id
_symmetry_equiv_pos_as_xyz
1 x,y,z
_cell_length_a                   5.0472
_cell_length_b                   7.1552
_cell_length_c                   5.4752
_cell_angle_alpha                90.0
_cell_angle_beta                 115.363
_cell_angle_gamma                90.0
loop_
_atom_site_label
_atom_site_type_symbol
_atom_site_fract_x
_atom_site_fract_y
_atom_site_fract_z
     1  N          0.85472000       0.36690130       0.21312000
     2  N          0.14528000       0.86690130       0.28688000
     3  N          0.14528000       0.63309870       0.78688000
     4  N          0.85472000       0.13309870       0.71312000
     5  H          0.88104100       0.31362300       0.07953600
     6  H          0.11895900       0.81362300       0.42046400
     7  H          0.11895900       0.68637700       0.92046400
     8  H          0.88104100       0.18637700       0.57953600
     9  H         -0.03455300       0.46942700       0.25614100
    10  H          0.03455300       0.96942700       0.24385900
    11  H          0.03455300       0.53057300       0.74385900
    12  H         -0.03455300       0.03057300       0.75614100
    13  C          0.54982000       0.43035140       0.11692000
    14  C          0.45018000       0.93035140       0.38308000
    15  C          0.45018000       0.56964860       0.88308000
    16  C          0.54982000       0.06964860       0.61692000
    17  H          0.42463700       0.31682200       0.06413300
    18  H          0.57536300       0.81682200       0.43586700
    19  H          0.57536300       0.68317800       0.93586700
    20  H          0.42463700       0.18317800       0.56413300
    21  H          0.52324400       0.48632500       0.26863800
    22  H          0.47675600      -0.01367500       0.23136200
    23  H          0.47675600       0.51367500       0.73136200
    24  H          0.52324400       0.01367500       0.76863800
