data_ETEYAE
_symmetry_space_group_name_H-M    'P1'
_symmetry_Int_Tables_number       1
loop_
_symmetry_equiv_pos_site_id
_symmetry_equiv_pos_as_xyz
1 x,y,z
_cell_length_a                   7.782116
_cell_length_b                   7.063514
_cell_length_c                   11.6202
_cell_angle_alpha                90.0
_cell_angle_beta                 90.0
_cell_angle_gamma                90.0
loop_
_atom_site_label
_atom_site_type_symbol
_atom_site_fract_x
_atom_site_fract_y
_atom_site_fract_z
     1  Cl         0.42492110       0.24502110       0.28755800
     2  Cl         0.07507890       0.75497890       0.78755800
     3  Cl         0.57507890       0.74502110       0.21244200
     4  Cl         0.92492110       0.25497890       0.71244200
     5  Cl         0.57507890       0.75497890       0.71244200
     6  Cl         0.92492110       0.24502110       0.21244200
     7  Cl         0.42492110       0.25497890       0.78755800
     8  Cl         0.07507890       0.74502110       0.28755800
     9  C          0.35573000       0.12473000       0.07553000
    10  C          0.14427000       0.87527000       0.57553000
    11  C          0.64427000       0.62473000       0.42447000
    12  C          0.85573000       0.37527000       0.92447000
    13  C          0.64427000       0.87527000       0.92447000
    14  C          0.85573000       0.12473000       0.42447000
    15  C          0.35573000       0.37527000       0.57553000
    16  C          0.14427000       0.62473000       0.07553000
    17  N          0.25673000       0.04383000       0.02393000
    18  N          0.24327000       0.95617000       0.52393000
    19  N          0.74327000       0.54383000       0.47607000
    20  N          0.75673000       0.45617000       0.97607000
    21  N          0.74327000       0.95617000       0.97607000
    22  N          0.75673000       0.04383000       0.47607000
    23  N          0.25673000       0.45617000       0.52393000
    24  N          0.24327000       0.54383000       0.02393000
    25  C          0.48484000       0.22713000       0.14093000
    26  C          0.01516000       0.77287000       0.64093000
    27  C          0.51516000       0.72713000       0.35907000
    28  C         -0.01516000       0.27287000       0.85907000
    29  C          0.51516000       0.77287000       0.85907000
    30  C         -0.01516000       0.22713000       0.35907000
    31  C          0.48484000       0.27287000       0.64093000
    32  C          0.01516000       0.72713000       0.14093000
    33  H          0.49880000       0.35300000       0.10880000
    34  H          0.00120000       0.64700000       0.60880000
    35  H          0.50120000       0.85300000       0.39120000
    36  H         -0.00120000       0.14700000       0.89120000
    37  H          0.50120000       0.64700000       0.89120000
    38  H         -0.00120000       0.35300000       0.39120000
    39  H          0.49880000       0.14700000       0.60880000
    40  H          0.00120000       0.85300000       0.10880000
    41  H          0.59420000       0.16180000       0.13490000
    42  H          0.90580000       0.83820000       0.63490000
    43  H          0.40580000       0.66180000       0.36510000
    44  H          0.09420000       0.33820000       0.86510000
    45  H          0.40580000       0.83820000       0.86510000
    46  H          0.09420000       0.16180000       0.36510000
    47  H          0.59420000       0.33820000       0.63490000
    48  H          0.90580000       0.66180000       0.13490000
