data_ETEYIM
_symmetry_space_group_name_H-M    'P1'
_symmetry_Int_Tables_number       1
loop_
_symmetry_equiv_pos_site_id
_symmetry_equiv_pos_as_xyz
1 x,y,z
_cell_length_a                   15.2512
_cell_length_b                   15.2512
_cell_length_c                   8.121916
_cell_angle_alpha                90.0
_cell_angle_beta                 90.0
_cell_angle_gamma                90.0
loop_
_atom_site_label
_atom_site_type_symbol
_atom_site_fract_x
_atom_site_fract_y
_atom_site_fract_z
     1  Cl         0.15240150       0.15665150       0.15533000
     2  Cl         0.34759850       0.34334850       0.65533000
     3  Cl         0.84334850       0.65240150       0.40533000
     4  Cl         0.65665150       0.84759850       0.90533000
     5  Cl         0.15240150       0.84334850       0.65533000
     6  Cl         0.34759850       0.65665150       0.15533000
     7  Cl         0.84334850       0.34759850       0.90533000
     8  Cl         0.65665150       0.15240150       0.40533000
     9  Cl         0.65240150       0.65665150       0.65533000
    10  Cl         0.84759850       0.84334850       0.15533000
    11  Cl         0.34334850       0.15240150       0.90533000
    12  Cl         0.15665150       0.34759850       0.40533000
    13  Cl         0.65240150       0.34334850       0.15533000
    14  Cl         0.84759850       0.15665150       0.65533000
    15  Cl         0.34334850       0.84759850       0.40533000
    16  Cl         0.15665150       0.65240150       0.90533000
    17  Cl         0.04287120       0.12449160       0.43832000
    18  Cl         0.45712880       0.37550840       0.93832000
    19  Cl         0.87550840       0.54287120       0.68832000
    20  Cl         0.62449160       0.95712880       0.18832000
    21  Cl         0.04287120       0.87550840       0.93832000
    22  Cl         0.45712880       0.62449160       0.43832000
    23  Cl         0.87550840       0.45712880       0.18832000
    24  Cl         0.62449160       0.04287120       0.68832000
    25  Cl         0.54287120       0.62449160       0.93832000
    26  Cl         0.95712880       0.87550840       0.43832000
    27  Cl         0.37550840       0.04287120       0.18832000
    28  Cl         0.12449160       0.45712880       0.68832000
    29  Cl         0.54287120       0.37550840       0.43832000
    30  Cl         0.95712880       0.12449160       0.93832000
    31  Cl         0.37550840       0.95712880       0.68832000
    32  Cl         0.12449160       0.54287120       0.18832000
    33  Cl         0.14742150       0.98410880       0.30163000
    34  Cl         0.35257850       0.51589120       0.80163000
    35  Cl         0.01589120       0.64742150       0.55163000
    36  Cl         0.48410880       0.85257850       0.05163000
    37  Cl         0.14742150       0.01589120       0.80163000
    38  Cl         0.35257850       0.48410880       0.30163000
    39  Cl         0.01589120       0.35257850       0.05163000
    40  Cl         0.48410880       0.14742150       0.55163000
    41  Cl         0.64742150       0.48410880       0.80163000
    42  Cl         0.85257850       0.01589120       0.30163000
    43  Cl         0.51589120       0.14742150       0.05163000
    44  Cl         0.98410880       0.35257850       0.55163000
    45  Cl         0.64742150       0.51589120       0.30163000
    46  Cl         0.85257850       0.98410880       0.80163000
    47  Cl         0.51589120       0.85257850       0.55163000
    48  Cl         0.98410880       0.64742150       0.05163000
    49  N          0.27285000       0.13795000       0.53448000
    50  N          0.22715000       0.36205000       0.03448000
    51  N          0.86205000       0.77285000       0.78448000
    52  N          0.63795000       0.72715000       0.28448000
    53  N          0.27285000       0.86205000       0.03448000
    54  N          0.22715000       0.63795000       0.53448000
    55  N          0.86205000       0.22715000       0.28448000
    56  N          0.63795000       0.27285000       0.78448000
    57  N          0.77285000       0.63795000       0.03448000
    58  N          0.72715000       0.86205000       0.53448000
    59  N          0.36205000       0.27285000       0.28448000
    60  N          0.13795000       0.22715000       0.78448000
    61  N          0.77285000       0.36205000       0.53448000
    62  N          0.72715000       0.13795000       0.03448000
    63  N          0.36205000       0.72715000       0.78448000
    64  N          0.13795000       0.77285000       0.28448000
    65  C          0.14395000       0.09886000       0.34178000
    66  C          0.35605000       0.40114000       0.84178000
    67  C          0.90114000       0.64395000       0.59178000
    68  C          0.59886000       0.85605000       0.09178000
    69  C          0.14395000       0.90114000       0.84178000
    70  C          0.35605000       0.59886000       0.34178000
    71  C          0.90114000       0.35605000       0.09178000
    72  C          0.59886000       0.14395000       0.59178000
    73  C          0.64395000       0.59886000       0.84178000
    74  C          0.85605000       0.90114000       0.34178000
    75  C          0.40114000       0.14395000       0.09178000
    76  C          0.09886000       0.35605000       0.59178000
    77  C          0.64395000       0.40114000       0.34178000
    78  C          0.85605000       0.09886000       0.84178000
    79  C          0.40114000       0.85605000       0.59178000
    80  C          0.09886000       0.64395000       0.09178000
    81  C          0.21605000       0.12055000       0.44968000
    82  C          0.28395000       0.37945000       0.94968000
    83  C          0.87945000       0.71605000       0.69968000
    84  C          0.62055000       0.78395000       0.19968000
    85  C          0.21605000       0.87945000       0.94968000
    86  C          0.28395000       0.62055000       0.44968000
    87  C          0.87945000       0.28395000       0.19968000
    88  C          0.62055000       0.21605000       0.69968000
    89  C          0.71605000       0.62055000       0.94968000
    90  C          0.78395000       0.87945000       0.44968000
    91  C          0.37945000       0.21605000       0.19968000
    92  C          0.12055000       0.28395000       0.69968000
    93  C          0.71605000       0.37945000       0.44968000
    94  C          0.78395000       0.12055000       0.94968000
    95  C          0.37945000       0.78395000       0.69968000
    96  C          0.12055000       0.71605000       0.19968000
