data_ETHANE01
_symmetry_space_group_name_H-M    'P1'
_symmetry_Int_Tables_number       1
loop_
_symmetry_equiv_pos_site_id
_symmetry_equiv_pos_as_xyz
1 x,y,z
_cell_length_a                   4.2263
_cell_length_b                   5.6234
_cell_length_c                   5.8454
_cell_angle_alpha                90.0
_cell_angle_beta                 90.416
_cell_angle_gamma                90.0
loop_
_atom_site_label
_atom_site_type_symbol
_atom_site_fract_x
_atom_site_fract_y
_atom_site_fract_z
     1  C          0.96110000       0.09592000       0.91110000
     2  C          0.53890000       0.59592000       0.58890000
     3  C          0.03890000       0.90408000       0.08890000
     4  C          0.46110000       0.40408000       0.41110000
     5  H          0.06950000       0.04900000       0.74750000
     6  H          0.43050000       0.54900000       0.75250000
     7  H          0.93050000       0.95100000       0.25250000
     8  H          0.56950000       0.45100000       0.24750000
     9  H          0.05600000       0.26980000       0.96120000
    10  H          0.44400000       0.76980000       0.53880000
    11  H          0.94400000       0.73020000       0.03880000
    12  H          0.55600000       0.23020000       0.46120000
    13  H          0.70350000       0.11140000       0.89480000
    14  H          0.79650000       0.61140000       0.60520000
    15  H          0.29650000       0.88860000       0.10520000
    16  H          0.20350000       0.38860000       0.39480000
