data_FACGEV
_symmetry_space_group_name_H-M    'P1'
_symmetry_Int_Tables_number       1
loop_
_symmetry_equiv_pos_site_id
_symmetry_equiv_pos_as_xyz
1 x,y,z
_cell_length_a                   5.8092
_cell_length_b                   6.5302
_cell_length_c                   7.1902
_cell_angle_alpha                90.0
_cell_angle_beta                 101.892
_cell_angle_gamma                90.0
loop_
_atom_site_label
_atom_site_type_symbol
_atom_site_fract_x
_atom_site_fract_y
_atom_site_fract_z
     1  F          0.18913000       0.18632000       0.95652000
     2  F          0.81087000       0.68632000       0.54348000
     3  F          0.81087000       0.81368000       0.04348000
     4  F          0.18913000       0.31368000       0.45652000
     5  C          0.34563000       0.34413000       0.97892000
     6  C          0.65437000       0.84413000       0.52108000
     7  C          0.65437000       0.65587000       0.02108000
     8  C          0.34563000       0.15587000       0.47892000
     9  C          0.56804000       0.31043000       0.08092000
    10  C          0.43196000       0.81043000       0.41908000
    11  C          0.43196000       0.68957000       0.91908000
    12  C          0.56804000       0.18957000       0.58092000
    13  H          0.60944000       0.17563400       0.13213300
    14  H          0.39056000       0.67563400       0.36786700
    15  H          0.39056000       0.82436600       0.86786700
    16  H          0.60944000       0.32436600       0.63213300
    17  C          0.27403000       0.52983000       0.89752000
    18  C          0.72597000       0.02983000       0.60248000
    19  C          0.72597000       0.47017000       0.10248000
    20  C          0.27403000       0.97017000       0.39752000
    21  H          0.11683900       0.54223000       0.83033100
    22  H          0.88316100       0.04223000       0.66966900
    23  H          0.88316100       0.45777000       0.16966900
    24  H          0.11683900       0.95777000       0.33033100
