data_FACJAU
_symmetry_space_group_name_H-M    'P1'
_symmetry_Int_Tables_number       1
loop_
_symmetry_equiv_pos_site_id
_symmetry_equiv_pos_as_xyz
1 x,y,z
_cell_length_a                   4.471911
_cell_length_b                   10.2852
_cell_length_c                   6.3422
_cell_angle_alpha                90.0
_cell_angle_beta                 107.972
_cell_angle_gamma                90.0
loop_
_atom_site_label
_atom_site_type_symbol
_atom_site_fract_x
_atom_site_fract_y
_atom_site_fract_z
     1  F          0.95702000       0.41728800       0.19940120
     2  F          0.04298000       0.91728800       0.30059880
     3  F          0.04298000       0.58271200       0.80059880
     4  F          0.95702000       0.08271200       0.69940120
     5  F          0.32652000       0.24584700       0.48515140
     6  F          0.67348000       0.74584700       0.01484860
     7  F          0.67348000       0.75415300       0.51484860
     8  F          0.32652000       0.25415300      -0.01484860
     9  C          0.22623000       0.45941110       0.34632000
    10  C          0.77377000       0.95941110       0.15368000
    11  C          0.77377000       0.54058890       0.65368000
    12  C          0.22623000       0.04058890       0.84632000
    13  C          0.41503000       0.37183100       0.49402000
    14  C          0.58497000       0.87183100       0.00598000
    15  C          0.58497000       0.62816900       0.50598000
    16  C          0.41503000       0.12816900      -0.00598000
    17  C          0.30843000       0.58941110       0.34962000
    18  C          0.69157000       0.08941110       0.15038000
    19  C          0.69157000       0.41058890       0.65038000
    20  C          0.30843000       0.91058890       0.84962000
    21  H          0.17644300       0.64901900       0.25562700
    22  H          0.82355700       0.14901900       0.24437300
    23  H          0.82355700       0.35098100       0.74437300
    24  H          0.17644300       0.85098100       0.75562700
