data_FBUOFB
_symmetry_space_group_name_H-M    'P1'
_symmetry_Int_Tables_number       1
loop_
_symmetry_equiv_pos_site_id
_symmetry_equiv_pos_as_xyz
1 x,y,z
_cell_length_a                   6.0901
_cell_length_b                   5.8311
_cell_length_c                   8.0601
_cell_angle_alpha                90.0
_cell_angle_beta                 105.332
_cell_angle_gamma                90.0
loop_
_atom_site_label
_atom_site_type_symbol
_atom_site_fract_x
_atom_site_fract_y
_atom_site_fract_z
     1  S          0.30270000       0.14820000       0.44520000
     2  S          0.19730000       0.64820000       0.05480000
     3  S          0.69730000       0.85180000       0.55480000
     4  S          0.80270000       0.35180000       0.94520000
     5  C          0.59210000       0.10430000       0.40840000
     6  C          0.90790000       0.60430000       0.09160000
     7  C          0.40790000       0.89570000       0.59160000
     8  C          0.09210000       0.39570000       0.90840000
     9  F          0.72600000       0.28340000       0.45520000
    10  F          0.77400000       0.78340000       0.04480000
    11  F          0.27400000       0.71660000       0.54480000
    12  F          0.22600000       0.21660000       0.95520000
    13  F          0.57550000       0.05370000       0.24450000
    14  F          0.92450000       0.55370000       0.25550000
    15  F          0.42450000       0.94630000       0.75550000
    16  F          0.07550000       0.44630000       0.74450000
    17  O          0.12870000       0.05960000       0.29390000
    18  O          0.37130000       0.55960000       0.20610000
    19  O          0.87130000       0.94040000       0.70610000
    20  O          0.62870000       0.44040000       0.79390000
