data_FEPVOM
_symmetry_space_group_name_H-M    'P1'
_symmetry_Int_Tables_number       1
loop_
_symmetry_equiv_pos_site_id
_symmetry_equiv_pos_as_xyz
1 x,y,z
_cell_length_a                   9.04312
_cell_length_b                   9.04312
_cell_length_c                   6.23872
_cell_angle_alpha                90.0
_cell_angle_beta                 90.0
_cell_angle_gamma                90.0
loop_
_atom_site_label
_atom_site_type_symbol
_atom_site_fract_x
_atom_site_fract_y
_atom_site_fract_z
     1  Cl         0.08188120       0.82678100       0.27662000
     2  Cl         0.91811880       0.17321900       0.27662000
     3  Cl         0.82678100       0.91811880       0.72338000
     4  Cl         0.17321900       0.08188120       0.72338000
     5  Cl         0.41811880       0.32678100       0.72338000
     6  Cl         0.58188120       0.67321900       0.72338000
     7  Cl         0.67321900       0.41811880       0.27662000
     8  Cl         0.32678100       0.58188120       0.27662000
     9  P          0.21718100       0.71718100       0.06713000
    10  P          0.78281900       0.28281900       0.06713000
    11  P          0.71718100       0.78281900       0.93287000
    12  P          0.28281900       0.21718100       0.93287000
    13  O          0.00000000       0.50000000       0.09356000
    14  O          0.50000000       0.00000000       0.90644000
    15  C          0.05345000       0.55345000       0.75603000
    16  C          0.94655000       0.44655000       0.75603000
    17  C          0.55345000       0.94655000       0.24397000
    18  C          0.44655000       0.05345000       0.24397000
    19  H          0.09690000       0.59690000       0.63270000
    20  H          0.90310000       0.40310000       0.63270000
    21  H          0.59690000       0.90310000       0.36730000
    22  H          0.40310000       0.09690000       0.36730000
    23  C          0.08684000       0.58684000       0.96364000
    24  C          0.91316000       0.41316000       0.96364000
    25  C          0.58684000       0.91316000       0.03636000
    26  C          0.41316000       0.08684000       0.03636000
