data_FEPWOM
_symmetry_space_group_name_H-M    'P1'
_symmetry_Int_Tables_number       1
loop_
_symmetry_equiv_pos_site_id
_symmetry_equiv_pos_as_xyz
1 x,y,z
_cell_length_a                   5.4532
_cell_length_b                   6.3182
_cell_length_c                   10.6402
_cell_angle_alpha                90.0
_cell_angle_beta                 90.102
_cell_angle_gamma                90.0
loop_
_atom_site_label
_atom_site_type_symbol
_atom_site_fract_x
_atom_site_fract_y
_atom_site_fract_z
     1  S          0.74299110       0.24539800       0.41767500
     2  S          0.25700890       0.74539800       0.08232500
     3  S          0.25700890       0.75460200       0.58232500
     4  S          0.74299110       0.25460200       0.91767500
     5  F          0.35333000       0.26962000       0.54891000
     6  F          0.64667000       0.76962000       0.95109000
     7  F          0.64667000       0.73038000       0.45109000
     8  F          0.35333000       0.23038000       0.04891000
     9  F          0.32193000       0.43522000       0.36941000
    10  F          0.67807000       0.93522000       0.13059000
    11  F          0.67807000       0.56478000       0.63059000
    12  F          0.32193000       0.06478000       0.86941000
    13  N          0.83674000       0.46283000       0.18942000
    14  N          0.16326000       0.96283000       0.31058000
    15  N          0.16326000       0.53717000       0.81058000
    16  N          0.83674000       0.03717000       0.68942000
    17  C          0.47094000       0.39453000       0.46702000
    18  C          0.52906000       0.89453000       0.03298000
    19  C          0.52906000       0.60547000       0.53298000
    20  C          0.47094000       0.10547000       0.96702000
    21  C          0.79334000       0.37864000       0.28212000
    22  C          0.20666000       0.87864000       0.21788000
    23  C          0.20666000       0.62136000       0.71788000
    24  C          0.79334000       0.12136000       0.78212000
