data_FERFOZ
_symmetry_space_group_name_H-M    'P1'
_symmetry_Int_Tables_number       1
loop_
_symmetry_equiv_pos_site_id
_symmetry_equiv_pos_as_xyz
1 x,y,z
_cell_length_a                   6.59028
_cell_length_b                   4.95666
_cell_length_c                   9.498316
_cell_angle_alpha                90.0
_cell_angle_beta                 111.16912
_cell_angle_gamma                90.0
loop_
_atom_site_label
_atom_site_type_symbol
_atom_site_fract_x
_atom_site_fract_y
_atom_site_fract_z
     1  O          0.66719190       0.58923000       0.27416130
     2  O          0.33280810       0.08923000       0.22583870
     3  O          0.33280810       0.41077000       0.72583870
     4  O          0.66719190       0.91077000       0.77416130
     5  H          0.71400000       0.43810000       0.36040000
     6  H          0.28600000       0.93810000       0.13960000
     7  H          0.28600000       0.56190000       0.63960000
     8  H          0.71400000       0.06190000       0.86040000
     9  N          0.90522000       0.62323000       0.14653160
    10  N          0.09478000       0.12323000       0.35346840
    11  N          0.09478000       0.37677000       0.85346840
    12  N          0.90522000       0.87677000       0.64653160
    13  N          0.74522000       0.49683000       0.17129150
    14  N          0.25478000      -0.00317000       0.32870850
    15  N          0.25478000       0.50317000       0.82870850
    16  N          0.74522000       0.00317000       0.67129150
    17  N          0.66322000       0.28653000       0.08570160
    18  N          0.33678000       0.78653000       0.41429840
    19  N          0.33678000       0.71347000       0.91429840
    20  N          0.66322000       0.21347000       0.58570160
    21  N          0.77762000       0.26833000      -0.00348160
    22  N          0.22238000       0.76833000       0.50348160
    23  N          0.22238000       0.73167000       0.00348160
    24  N          0.77762000       0.23167000       0.49651840
    25  C          0.92113000       0.47313000       0.03544170
    26  C          0.07887000      -0.02687000       0.46455830
    27  C          0.07887000       0.52687000       0.96455830
    28  C          0.92113000       0.02687000       0.53544170
