data_FIPDIR
_symmetry_space_group_name_H-M    'P1'
_symmetry_Int_Tables_number       1
loop_
_symmetry_equiv_pos_site_id
_symmetry_equiv_pos_as_xyz
1 x,y,z
_cell_length_a                   9.0293
_cell_length_b                   9.0293
_cell_length_c                   6.9233
_cell_angle_alpha                90.0
_cell_angle_beta                 90.0
_cell_angle_gamma                120.0
loop_
_atom_site_label
_atom_site_type_symbol
_atom_site_fract_x
_atom_site_fract_y
_atom_site_fract_z
     1  O          0.03761000       0.16701000       0.25000000
     2  O          0.83299000       0.87060000       0.25000000
     3  O          0.12940000       0.96239000       0.25000000
     4  O          0.96239000       0.83299000       0.75000000
     5  O          0.16701000       0.12940000       0.75000000
     6  O          0.87060000       0.03761000       0.75000000
     7  B          0.86791000       0.03781000       0.25000000
     8  B          0.96219000       0.83010000       0.25000000
     9  B          0.16990000       0.13209000       0.25000000
    10  B          0.13209000       0.96219000       0.75000000
    11  B          0.03781000       0.16990000       0.75000000
    12  B          0.83010000       0.86791000       0.75000000
    13  C          0.72201000       0.08321000       0.25000000
    14  C          0.91679000       0.63880000       0.25000000
    15  C          0.36120000       0.27799000       0.25000000
    16  C          0.27799000       0.91679000       0.75000000
    17  C          0.08321000       0.36120000       0.75000000
    18  C          0.63880000       0.72201000       0.75000000
    19  C          0.53941000       0.93479000       0.25000000
    20  C          0.06521000       0.60462000       0.25000000
    21  C          0.39538000       0.46059000       0.25000000
    22  C          0.46059000       0.06521000       0.75000000
    23  C          0.93479000       0.39538000       0.75000000
    24  C          0.60462000       0.53941000       0.75000000
    25  H          0.74001900       0.15721900       0.13982000
    26  H          0.84278100       0.58280000       0.13982000
    27  H          0.41720000       0.25998100       0.13982000
    28  H          0.25998100       0.84278100       0.63982000
    29  H          0.15721900       0.41720000       0.63982000
    30  H          0.58280000       0.74001900       0.63982000
    31  H          0.25998100       0.84278100       0.86018000
    32  H          0.15721900       0.41720000       0.86018000
    33  H          0.58280000       0.74001900       0.86018000
    34  H          0.74001900       0.15721900       0.36018000
    35  H          0.84278100       0.58280000       0.36018000
    36  H          0.41720000       0.25998100       0.36018000
    37  H          0.45032300       0.96657700       0.25000000
    38  H          0.03342300       0.48374600       0.25000000
    39  H          0.51625400       0.54967700       0.25000000
    40  H          0.54967700       0.03342300       0.75000000
    41  H          0.96657700       0.51625400       0.75000000
    42  H          0.48374600       0.45032300       0.75000000
    43  H          0.51731600       0.86498400       0.13502000
    44  H          0.13501600       0.65233200       0.13502000
    45  H          0.34766800       0.48268400       0.13502000
    46  H          0.48268400       0.13501600       0.63502000
    47  H          0.86498400       0.34766800       0.63502000
    48  H          0.65233200       0.51731600       0.63502000
    49  H          0.48268400       0.13501600       0.86498000
    50  H          0.86498400       0.34766800       0.86498000
    51  H          0.65233200       0.51731600       0.86498000
    52  H          0.51731600       0.86498400       0.36498000
    53  H          0.13501600       0.65233200       0.36498000
    54  H          0.34766800       0.48268400       0.36498000
