data_FITSIK
_symmetry_space_group_name_H-M    'P1'
_symmetry_Int_Tables_number       1
loop_
_symmetry_equiv_pos_site_id
_symmetry_equiv_pos_as_xyz
1 x,y,z
_cell_length_a                   10.2373
_cell_length_b                   8.6652
_cell_length_c                   6.2202
_cell_angle_alpha                90.0
_cell_angle_beta                 90.0
_cell_angle_gamma                90.0
loop_
_atom_site_label
_atom_site_type_symbol
_atom_site_fract_x
_atom_site_fract_y
_atom_site_fract_z
     1  Cl         0.60801000       0.25000000       0.65272000
     2  Cl         0.89199000       0.75000000       0.15272000
     3  Cl         0.10801000       0.25000000       0.84728000
     4  Cl         0.39199000       0.75000000       0.34728000
     5  Cl         0.65201000       0.43871000       0.20401000
     6  Cl         0.84799000       0.56129000       0.70401000
     7  Cl         0.15201000       0.06129000       0.29599000
     8  Cl         0.34799000       0.93871000       0.79599000
     9  Cl         0.34799000       0.56129000       0.79599000
    10  Cl         0.15201000       0.43871000       0.29599000
    11  Cl         0.84799000       0.93871000       0.70401000
    12  Cl         0.65201000       0.06129000       0.20401000
    13  C          0.48944000       0.25000000       0.45596000
    14  C          0.01056000       0.75000000       0.95596000
    15  C         -0.01056000       0.25000000       0.04404000
    16  C          0.51056000       0.75000000       0.54404000
    17  C          0.50892000       0.33593000       0.25044000
    18  C         -0.00892000       0.66407000       0.75044000
    19  C          0.00892000       0.16407000       0.24956000
    20  C          0.49108000       0.83593000       0.74956000
    21  C          0.49108000       0.66407000       0.74956000
    22  C          0.00892000       0.33593000       0.24956000
    23  C         -0.00892000       0.83593000       0.75044000
    24  C          0.50892000       0.16407000       0.25044000
    25  H          0.41283500       0.25000000       0.50176300
    26  H          0.08716500       0.75000000       0.00176300
    27  H          0.91283500       0.25000000      -0.00176300
    28  H          0.58716500       0.75000000       0.49823700
    29  H          0.43802500       0.38242900       0.19363400
    30  H          0.06197500       0.61757100       0.69363400
    31  H          0.93802500       0.11757100       0.30636600
    32  H          0.56197500       0.88242900       0.80636600
    33  H          0.56197500       0.61757100       0.80636600
    34  H          0.93802500       0.38242900       0.30636600
    35  H          0.06197500       0.88242900       0.69363400
    36  H          0.43802500       0.11757100       0.19363400
