data_FITXIP
_symmetry_space_group_name_H-M    'P1'
_symmetry_Int_Tables_number       1
loop_
_symmetry_equiv_pos_site_id
_symmetry_equiv_pos_as_xyz
1 x,y,z
_cell_length_a                   6.2571
_cell_length_b                   7.8391
_cell_length_c                   9.4241
_cell_angle_alpha                90.0
_cell_angle_beta                 90.0
_cell_angle_gamma                90.0
loop_
_atom_site_label
_atom_site_type_symbol
_atom_site_fract_x
_atom_site_fract_y
_atom_site_fract_z
     1  N          0.25000000       0.96698000       0.07041000
     2  N          0.25000000       0.96698000       0.92959000
     3  N          0.75000000       0.53302000       0.42959000
     4  N          0.75000000       0.53302000       0.57041000
     5  N          0.75000000       0.03302000       0.07041000
     6  N          0.75000000       0.03302000       0.92959000
     7  N          0.25000000       0.46698000       0.42959000
     8  N          0.25000000       0.46698000       0.57041000
     9  N          0.25000000       0.27012000       0.06972000
    10  N          0.25000000       0.27012000       0.93028000
    11  N          0.75000000       0.22988000       0.43028000
    12  N          0.75000000       0.22988000       0.56972000
    13  N          0.75000000       0.72988000       0.06972000
    14  N          0.75000000       0.72988000       0.93028000
    15  N          0.25000000       0.77012000       0.43028000
    16  N          0.25000000       0.77012000       0.56972000
    17  C          0.25000000       0.11892000       0.13762000
    18  C          0.25000000       0.11892000       0.86238000
    19  C          0.75000000       0.38108000       0.36238000
    20  C          0.75000000       0.38108000       0.63762000
    21  C          0.75000000       0.88108000       0.13762000
    22  C          0.75000000       0.88108000       0.86238000
    23  C          0.25000000       0.61892000       0.36238000
    24  C          0.25000000       0.61892000       0.63762000
    25  N          0.25000000       0.11972000       0.27892000
    26  N          0.25000000       0.11972000       0.72108000
    27  N          0.75000000       0.38028000       0.22108000
    28  N          0.75000000       0.38028000       0.77892000
    29  N          0.75000000       0.88028000       0.27892000
    30  N          0.75000000       0.88028000       0.72108000
    31  N          0.25000000       0.61972000       0.22108000
    32  N          0.25000000       0.61972000       0.77892000
    33  H          0.25000000       0.01830000       0.33120000
    34  H          0.25000000       0.01830000       0.66880000
    35  H          0.75000000       0.48170000       0.16880000
    36  H          0.75000000       0.48170000       0.83120000
    37  H          0.75000000       0.98170000       0.33120000
    38  H          0.75000000       0.98170000       0.66880000
    39  H          0.25000000       0.51830000       0.16880000
    40  H          0.25000000       0.51830000       0.83120000
    41  H          0.25000000       0.21320000       0.33020000
    42  H          0.25000000       0.21320000       0.66980000
    43  H          0.75000000       0.28680000       0.16980000
    44  H          0.75000000       0.28680000       0.83020000
    45  H          0.75000000       0.78680000       0.33020000
    46  H          0.75000000       0.78680000       0.66980000
    47  H          0.25000000       0.71320000       0.16980000
    48  H          0.25000000       0.71320000       0.83020000
