data_FIZJIH
_symmetry_space_group_name_H-M    'P1'
_symmetry_Int_Tables_number       1
loop_
_symmetry_equiv_pos_site_id
_symmetry_equiv_pos_as_xyz
1 x,y,z
_cell_length_a                   9.6602
_cell_length_b                   9.0771
_cell_length_c                   4.2941
_cell_angle_alpha                90.0
_cell_angle_beta                 91.071
_cell_angle_gamma                90.0
loop_
_atom_site_label
_atom_site_type_symbol
_atom_site_fract_x
_atom_site_fract_y
_atom_site_fract_z
     1  N          0.94859000       0.13071000       0.09922000
     2  N          0.44859000       0.63071000       0.09922000
     3  N          0.05141000       0.13071000       0.90078000
     4  N          0.55141000       0.63071000       0.90078000
     5  N          0.05141000       0.86929000       0.90078000
     6  N          0.55141000       0.36929000       0.90078000
     7  N          0.94859000       0.86929000       0.09922000
     8  N          0.44859000       0.36929000       0.09922000
     9  C          0.90108000       0.00000000       0.19064000
    10  C          0.40108000       0.50000000       0.19064000
    11  C          0.09892000       0.00000000       0.80936000
    12  C          0.59892000       0.50000000       0.80936000
    13  N          0.80109000       0.00000000       0.41774000
    14  N          0.30109000       0.50000000       0.41774000
    15  N          0.19891000       0.00000000       0.58226000
    16  N          0.69891000       0.50000000       0.58226000
    17  C          0.67239000       0.08062000       0.36164000
    18  C          0.17239000       0.58062000       0.36164000
    19  C          0.32761000       0.08062000       0.63836000
    20  C          0.82761000       0.58062000       0.63836000
    21  C          0.32761000       0.91938000       0.63836000
    22  C          0.82761000       0.41938000       0.63836000
    23  C          0.67239000       0.91938000       0.36164000
    24  C          0.17239000       0.41938000       0.36164000
    25  H          0.66790000       0.12920000       0.16130000
    26  H          0.16790000       0.62920000       0.16130000
    27  H          0.33210000       0.12920000       0.83870000
    28  H          0.83210000       0.62920000       0.83870000
    29  H          0.33210000       0.87080000       0.83870000
    30  H          0.83210000       0.37080000       0.83870000
    31  H          0.66790000       0.87080000       0.16130000
    32  H          0.16790000       0.37080000       0.16130000
    33  H          0.63890000       0.13120000       0.54240000
    34  H          0.13890000       0.63120000       0.54240000
    35  H          0.36110000       0.13120000       0.45760000
    36  H          0.86110000       0.63120000       0.45760000
    37  H          0.36110000       0.86880000       0.45760000
    38  H          0.86110000       0.36880000       0.45760000
    39  H          0.63890000       0.86880000       0.54240000
    40  H          0.13890000       0.36880000       0.54240000
