data_FLUANA
_symmetry_space_group_name_H-M    'P1'
_symmetry_Int_Tables_number       1
loop_
_symmetry_equiv_pos_site_id
_symmetry_equiv_pos_as_xyz
1 x,y,z
_cell_length_a                   8.6903
_cell_length_b                   5.7171
_cell_length_c                   7.3562
_cell_angle_alpha                90.0
_cell_angle_beta                 120.542
_cell_angle_gamma                90.0
loop_
_atom_site_label
_atom_site_type_symbol
_atom_site_fract_x
_atom_site_fract_y
_atom_site_fract_z
     1  C          0.46740000       0.32680000       0.11560000
     2  C          0.03260000       0.82680000       0.88440000
     3  C          0.53260000       0.67320000       0.88440000
     4  C          0.96740000       0.17320000       0.11560000
     5  C          0.58650000       0.52220000       0.22480000
     6  C          0.91350000       0.02220000       0.77520000
     7  C          0.41350000       0.47780000       0.77520000
     8  C          0.08650000      -0.02220000       0.22480000
     9  C          0.38540000       0.30240000       0.90680000
    10  C          0.11460000       0.80240000       0.09320000
    11  C          0.61460000       0.69760000       0.09320000
    12  C          0.88540000       0.19760000       0.90680000
    13  F          0.44140000       0.17340000       0.23880000
    14  F          0.05860000       0.67340000       0.76120000
    15  F          0.55860000       0.82660000       0.76120000
    16  F          0.94140000       0.32660000       0.23880000
    17  H          0.24910000       0.13010000       0.69070000
    18  H          0.25090000       0.63010000       0.30930000
    19  H          0.75090000       0.86990000       0.30930000
    20  H          0.74910000       0.36990000       0.69070000
    21  O          0.66320000       0.55090000       0.41460000
    22  O          0.83680000       0.05090000       0.58540000
    23  O          0.33680000       0.44910000       0.58540000
    24  O          0.16320000       0.94910000       0.41460000
    25  O          0.27160000       0.12860000       0.80380000
    26  O          0.22840000       0.62860000       0.19620000
    27  O          0.72840000       0.87140000       0.19620000
    28  O          0.77160000       0.37140000       0.80380000
