data_FOMHAZ
_symmetry_space_group_name_H-M    'P1'
_symmetry_Int_Tables_number       1
loop_
_symmetry_equiv_pos_site_id
_symmetry_equiv_pos_as_xyz
1 x,y,z
_cell_length_a                   8.9394
_cell_length_b                   6.2532
_cell_length_c                   3.5652
_cell_angle_alpha                90.0
_cell_angle_beta                 112.51
_cell_angle_gamma                90.0
loop_
_atom_site_label
_atom_site_type_symbol
_atom_site_fract_x
_atom_site_fract_y
_atom_site_fract_z
     1  N          0.00300000       0.10460000       0.93670000
     2  N          0.49700000       0.60460000       0.06330000
     3  N         -0.00300000       0.89540000       0.06330000
     4  N          0.50300000       0.39540000       0.93670000
     5  C          0.13890000       0.21480000       0.10880000
     6  C          0.36110000       0.71480000       0.89120000
     7  C          0.86110000       0.78520000       0.89120000
     8  C          0.63890000       0.28520000       0.10880000
     9  O          0.26060000       0.14770000       0.37580000
    10  O          0.23940000       0.64770000       0.62420000
    11  O          0.73940000       0.85230000       0.62420000
    12  O          0.76060000       0.35230000       0.37580000
    13  H          0.13000000       0.35500000       0.01000000
    14  H          0.37000000       0.85500000      -0.01000000
    15  H          0.87000000       0.64500000      -0.01000000
    16  H          0.63000000       0.14500000       0.01000000
    17  H          0.92500000       0.16000000       0.76000000
    18  H          0.57500000       0.66000000       0.24000000
    19  H          0.07500000       0.84000000       0.24000000
    20  H          0.42500000       0.34000000       0.76000000
