data_FORHYZ
_symmetry_space_group_name_H-M    'P1'
_symmetry_Int_Tables_number       1
loop_
_symmetry_equiv_pos_site_id
_symmetry_equiv_pos_as_xyz
1 x,y,z
_cell_length_a                   6.4924
_cell_length_b                   6.4924
_cell_length_c                   7.5454
_cell_angle_alpha                90.0
_cell_angle_beta                 90.0
_cell_angle_gamma                90.0
loop_
_atom_site_label
_atom_site_type_symbol
_atom_site_fract_x
_atom_site_fract_y
_atom_site_fract_z
     1  C          0.12570000       0.12570000       0.18140000
     2  C          0.62570000       0.62570000       0.68140000
     3  C          0.87430000       0.12570000       0.81860000
     4  C          0.37430000       0.62570000       0.31860000
     5  C          0.87430000       0.87430000       0.18140000
     6  C          0.37430000       0.37430000       0.68140000
     7  C          0.12570000       0.87430000       0.81860000
     8  C          0.62570000       0.37430000       0.31860000
     9  H          0.12570000       0.12570000       0.32610000
    10  H          0.62570000       0.62570000       0.82610000
    11  H          0.87430000       0.12570000       0.67390000
    12  H          0.37430000       0.62570000       0.17390000
    13  H          0.87430000       0.87430000       0.32610000
    14  H          0.37430000       0.37430000       0.82610000
    15  H          0.12570000       0.87430000       0.67390000
    16  H          0.62570000       0.37430000       0.17390000
    17  N          0.00000000      -0.00000000       0.08920000
    18  N          0.50000000       0.50000000       0.58920000
    19  N         -0.00000000       0.00000000       0.91080000
    20  N          0.50000000       0.50000000       0.41080000
    21  O          0.24940000       0.24940000       0.09880000
    22  O          0.74940000       0.74940000       0.59880000
    23  O          0.75060000       0.24940000       0.90120000
    24  O          0.25060000       0.74940000       0.40120000
    25  O          0.75060000       0.75060000       0.09880000
    26  O          0.25060000       0.25060000       0.59880000
    27  O          0.24940000       0.75060000       0.90120000
    28  O          0.74940000       0.25060000       0.40120000
