data_FORMAC01
_symmetry_space_group_name_H-M    'P1'
_symmetry_Int_Tables_number       1
loop_
_symmetry_equiv_pos_site_id
_symmetry_equiv_pos_as_xyz
1 x,y,z
_cell_length_a                   10.2411
_cell_length_b                   3.5441
_cell_length_c                   5.3561
_cell_angle_alpha                90.0
_cell_angle_beta                 90.0
_cell_angle_gamma                90.0
loop_
_atom_site_label
_atom_site_type_symbol
_atom_site_fract_x
_atom_site_fract_y
_atom_site_fract_z
     1  C          0.15837000       0.31087000       0.16555000
     2  C          0.34163000       0.81087000       0.66555000
     3  C          0.65837000       0.18913000       0.16555000
     4  C          0.84163000       0.68913000       0.66555000
     5  O          0.08342000       0.14230000       0.00226000
     6  O          0.41658000       0.64230000       0.50226000
     7  O          0.58342000       0.35770000       0.00226000
     8  O          0.91658000       0.85770000       0.50226000
     9  O          0.27660000       0.34238000       0.14304000
    10  O          0.22340000       0.84238000       0.64304000
    11  O          0.77660000       0.15762000       0.14304000
    12  O          0.72340000       0.65762000       0.64304000
    13  H          0.13310000       0.05350000       0.88630000
    14  H          0.36690000       0.55350000       0.38630000
    15  H          0.63310000       0.44650000       0.88630000
    16  H          0.86690000       0.94650000       0.38630000
    17  H          0.11090000       0.41390000       0.29550000
    18  H          0.38910000       0.91390000       0.79550000
    19  H          0.61090000       0.08610000       0.29550000
    20  H          0.88910000       0.58610000       0.79550000
