data_FUCMUL
_symmetry_space_group_name_H-M    'P1'
_symmetry_Int_Tables_number       1
loop_
_symmetry_equiv_pos_site_id
_symmetry_equiv_pos_as_xyz
1 x,y,z
_cell_length_a                   7.8479
_cell_length_b                   6.6069
_cell_length_c                   5.5177
_cell_angle_alpha                90.0
_cell_angle_beta                 107.01
_cell_angle_gamma                90.0
loop_
_atom_site_label
_atom_site_type_symbol
_atom_site_fract_x
_atom_site_fract_y
_atom_site_fract_z
     1  S          0.11075800       0.25585800       0.22035900
     2  S          0.38924200       0.75585800       0.27964100
     3  S          0.88924200       0.74414200       0.77964100
     4  S          0.61075800       0.24414200       0.72035900
     5  N          0.90868000       0.61023000       0.23073000
     6  N          0.59132000       0.11023000       0.26927000
     7  N          0.09132000       0.38977000       0.76927000
     8  N          0.40868000       0.88977000       0.73073000
     9  C         -0.00222000       0.47793000       0.12053000
    10  C          0.50222000       0.97793000       0.37947000
    11  C          0.00222000       0.52207000       0.87947000
    12  C          0.49778000       0.02207000       0.62053000
    13  C          0.15333000       0.24473000       0.92906000
    14  C          0.34667000       0.74473000       0.57094000
    15  C          0.84667000       0.75527000       0.07094000
    16  C          0.65333000       0.25527000       0.42906000
    17  H          0.21640000       0.12540000       0.91040000
    18  H          0.28360000       0.62540000       0.58960000
    19  H          0.78360000       0.87460000       0.08960000
    20  H          0.71640000       0.37460000       0.41040000
