data_FUDPOJ
_symmetry_space_group_name_H-M    'P1'
_symmetry_Int_Tables_number       1
loop_
_symmetry_equiv_pos_site_id
_symmetry_equiv_pos_as_xyz
1 x,y,z
_cell_length_a                   6.1731
_cell_length_b                   6.5201
_cell_length_c                   7.8992
_cell_angle_alpha                90.0
_cell_angle_beta                 90.0
_cell_angle_gamma                90.0
loop_
_atom_site_label
_atom_site_type_symbol
_atom_site_fract_x
_atom_site_fract_y
_atom_site_fract_z
     1  O          0.88092880       0.08759110       0.25000000
     2  O          0.11907120       0.91240890       0.75000000
     3  O          0.38092880       0.41240890       0.25000000
     4  O          0.61907120       0.58759110       0.75000000
     5  O          0.31455800       0.82121200       0.47496600
     6  O          0.68544200       0.17878800       0.97496600
     7  O          0.81455800       0.67878800       0.02503400
     8  O          0.18544200       0.32121200       0.52503400
     9  O          0.68544200       0.17878800       0.52503400
    10  O          0.31455800       0.82121200       0.02503400
    11  O          0.18544200       0.32121200       0.97496600
    12  O          0.81455800       0.67878800       0.47496600
    13  C          0.05563140      -0.01394130       0.25000000
    14  C          0.94436860       0.01394130       0.75000000
    15  C          0.55563140       0.51394130       0.25000000
    16  C          0.44436860       0.48605870       0.75000000
    17  C          0.22086100       0.88431900       0.33688700
    18  C          0.77913900       0.11568100       0.83688700
    19  C          0.72086100       0.61568100       0.16311300
    20  C          0.27913900       0.38431900       0.66311300
    21  C          0.77913900       0.11568100       0.66311300
    22  C          0.22086100       0.88431900       0.16311300
    23  C          0.27913900       0.38431900       0.83688700
    24  C          0.72086100       0.61568100       0.33688700
    25  H          0.23220000       0.85670000       0.58820000
    26  H          0.76780000       0.14330000       0.08820000
    27  H          0.73220000       0.64330000       0.91180000
    28  H          0.26780000       0.35670000       0.41180000
    29  H          0.76780000       0.14330000       0.41180000
    30  H          0.23220000       0.85670000       0.91180000
    31  H          0.26780000       0.35670000       0.08820000
    32  H          0.73220000       0.64330000       0.58820000
