data_FUMAAC01
_symmetry_space_group_name_H-M    'P1'
_symmetry_Int_Tables_number       1
loop_
_symmetry_equiv_pos_site_id
_symmetry_equiv_pos_as_xyz
1 x,y,z
_cell_length_a                   5.2643
_cell_length_b                   7.6183
_cell_length_c                   4.4872
_cell_angle_alpha                106.855
_cell_angle_beta                 86.345
_cell_angle_gamma                134.938
loop_
_atom_site_label
_atom_site_type_symbol
_atom_site_fract_x
_atom_site_fract_y
_atom_site_fract_z
     1  C          0.40790000       0.38040000       0.40030000
     2  C          0.59210000       0.61960000       0.59970000
     3  C          0.45410000       0.21850000       0.44950000
     4  C          0.54590000       0.78150000       0.55050000
     5  H          0.68110000       0.24170000       0.73600000
     6  H          0.31890000       0.75830000       0.26400000
     7  H          0.22900000       0.28990000       0.18530000
     8  H          0.77100000       0.71010000       0.81470000
     9  O          0.27160000      -0.00450000       0.25670000
    10  O          0.72840000       0.00450000       0.74330000
    11  O          0.68420000       0.32550000       0.70260000
    12  O          0.31580000       0.67450000       0.29740000
