data_FURANE10
_symmetry_space_group_name_H-M    'P1'
_symmetry_Int_Tables_number       1
loop_
_symmetry_equiv_pos_site_id
_symmetry_equiv_pos_as_xyz
1 x,y,z
_cell_length_a                   5.691
_cell_length_b                   5.691
_cell_length_c                   11.922
_cell_angle_alpha                90.0
_cell_angle_beta                 90.0
_cell_angle_gamma                90.0
loop_
_atom_site_label
_atom_site_type_symbol
_atom_site_fract_x
_atom_site_fract_y
_atom_site_fract_z
     1  C          0.92960000       0.11550000       0.06700000
     2  C          0.38450000       0.42960000       0.31700000
     3  C          0.07040000       0.88450000       0.56700000
     4  C          0.61550000       0.57040000       0.81700000
     5  C          0.11550000       0.92960000       0.93300000
     6  C          0.42960000       0.38450000       0.68300000
     7  C          0.88450000       0.07040000       0.43300000
     8  C          0.57040000       0.61550000       0.18300000
     9  C          0.11950000       0.24030000       0.04370000
    10  C          0.25970000       0.61950000       0.29370000
    11  C          0.88050000       0.75970000       0.54370000
    12  C          0.74030000       0.38050000       0.79370000
    13  C          0.24030000       0.11950000       0.95630000
    14  C          0.61950000       0.25970000       0.70630000
    15  C          0.75970000       0.88050000       0.45630000
    16  C          0.38050000       0.74030000       0.20630000
    17  H          0.78760000       0.13400000       0.12500000
    18  H          0.36600000       0.28760000       0.37500000
    19  H          0.21240000       0.86600000       0.62500000
    20  H          0.63400000       0.71240000       0.87500000
    21  H          0.13400000       0.78760000       0.87500000
    22  H          0.28760000       0.36600000       0.62500000
    23  H          0.86600000       0.21240000       0.37500000
    24  H          0.71240000       0.63400000       0.12500000
    25  H          0.16960000       0.40120000       0.08360000
    26  H          0.09880000       0.66960000       0.33360000
    27  H          0.83040000       0.59880000       0.58360000
    28  H          0.90120000       0.33040000       0.83360000
    29  H          0.40120000       0.16960000       0.91640000
    30  H          0.66960000       0.09880000       0.66640000
    31  H          0.59880000       0.83040000       0.41640000
    32  H          0.33040000       0.90120000       0.16640000
    33  O          0.92040000       0.92040000      -0.00000000
    34  O          0.57960000       0.42040000       0.25000000
    35  O          0.07960000       0.07960000       0.50000000
    36  O          0.42040000       0.57960000       0.75000000
