data_FUWMIT
_symmetry_space_group_name_H-M    'P1'
_symmetry_Int_Tables_number       1
loop_
_symmetry_equiv_pos_site_id
_symmetry_equiv_pos_as_xyz
1 x,y,z
_cell_length_a                   5.9901
_cell_length_b                   6.4221
_cell_length_c                   6.0581
_cell_angle_alpha                90.0
_cell_angle_beta                 100.791
_cell_angle_gamma                90.0
loop_
_atom_site_label
_atom_site_type_symbol
_atom_site_fract_x
_atom_site_fract_y
_atom_site_fract_z
     1  S          0.24062000       0.25000000       0.79188000
     2  S          0.75938000       0.75000000       0.20812000
     3  S          0.18222000       0.25000000       0.22062000
     4  S          0.81778000       0.75000000       0.77938000
     5  S          0.67012000       0.25000000       0.43132000
     6  S          0.32988000       0.75000000       0.56868000
     7  N          0.06368000       0.25000000       0.95702000
     8  N          0.93632000       0.75000000       0.04298000
     9  C          0.46507000       0.25000000       0.20347000
    10  C          0.53493000       0.75000000       0.79653000
    11  C          0.48308000       0.25000000       0.97292000
    12  C          0.51692000       0.75000000       0.02708000
    13  H          0.65090000       0.25000000       0.94900000
    14  H          0.34910000       0.75000000       0.05100000
