data_FUYVUQ01
_symmetry_space_group_name_H-M    'P1'
_symmetry_Int_Tables_number       1
loop_
_symmetry_equiv_pos_site_id
_symmetry_equiv_pos_as_xyz
1 x,y,z
_cell_length_a                   5.4215
_cell_length_b                   4.9454
_cell_length_c                   5.0236
_cell_angle_alpha                90.0
_cell_angle_beta                 90.0
_cell_angle_gamma                90.0
loop_
_atom_site_label
_atom_site_type_symbol
_atom_site_fract_x
_atom_site_fract_y
_atom_site_fract_z
     1  B          0.00000000       0.80852000       0.00000000
     2  B          0.50000000       0.19148000       0.50000000
     3  H          0.83940000       0.71950000       0.08150000
     4  H          0.66060000       0.28050000       0.58150000
     5  H          0.16060000       0.71950000       0.08150000
     6  H          0.33940000       0.28050000       0.58150000
     7  H          0.00000000       0.04860000       0.02880000
     8  H          0.50000000       0.95140000       0.52880000
     9  N          0.00000000       0.76294000       0.68442000
    10  N          0.50000000       0.23706000       0.18442000
    11  H          0.00000000       0.61990000       0.64220000
    12  H          0.50000000       0.38010000       0.14220000
    13  H          0.12660000       0.83640000       0.62250000
    14  H          0.37340000       0.16360000       0.12250000
    15  H          0.87340000       0.83640000       0.62250000
    16  H          0.62660000       0.16360000       0.12250000
