data_GAFLOP
_symmetry_space_group_name_H-M    'P1'
_symmetry_Int_Tables_number       1
loop_
_symmetry_equiv_pos_site_id
_symmetry_equiv_pos_as_xyz
1 x,y,z
_cell_length_a                   4.5604
_cell_length_b                   14.3862
_cell_length_c                   4.75989
_cell_angle_alpha                90.0
_cell_angle_beta                 106.738
_cell_angle_gamma                90.0
loop_
_atom_site_label
_atom_site_type_symbol
_atom_site_fract_x
_atom_site_fract_y
_atom_site_fract_z
     1  F          0.19922000       0.29621000       0.18402000
     2  F          0.30078000       0.79621000       0.31598000
     3  F          0.80078000       0.70379000       0.81598000
     4  F          0.69922000       0.20379000       0.68402000
     5  F          0.13922000       0.34781000       0.59463000
     6  F          0.36078000       0.84781000       0.90537000
     7  F          0.86078000       0.65219000       0.40537000
     8  F          0.63922000       0.15219000       0.09463000
     9  F          0.65657000       0.45441000       0.30583000
    10  F          0.84343000       0.95441000       0.19417000
    11  F          0.34343000       0.54559000       0.69417000
    12  F          0.15657000       0.04559000       0.80583000
    13  C          0.80747000       0.40211000       0.15793000
    14  C          0.69253000       0.90211000       0.34207000
    15  C          0.19253000       0.59789000       0.84207000
    16  C          0.30747000       0.09789000       0.65793000
    17  C          0.03893000       0.35111000       0.30702000
    18  C          0.46107000       0.85111000       0.19298000
    19  C         -0.03893000       0.64889000       0.69298000
    20  C          0.53893000       0.14889000       0.80702000
    21  H          0.75417000       0.41667000       0.92606000
    22  H          0.74583000       0.91667000       0.57394000
    23  H          0.24583000       0.58333000       0.07394000
    24  H          0.25417000       0.08333000       0.42606000
