data_GAFLAB
_symmetry_space_group_name_H-M    'P1'
_symmetry_Int_Tables_number       1
loop_
_symmetry_equiv_pos_site_id
_symmetry_equiv_pos_as_xyz
1 x,y,z
_cell_length_a                   6.39388
_cell_length_b                   9.5161
_cell_length_c                   4.49206
_cell_angle_alpha                90.0
_cell_angle_beta                 90.0
_cell_angle_gamma                90.0
loop_
_atom_site_label
_atom_site_type_symbol
_atom_site_fract_x
_atom_site_fract_y
_atom_site_fract_z
     1  F          0.37380900       0.39327800       0.21800260
     2  F          0.12619100       0.60672200       0.71800260
     3  F          0.62619100       0.89327800       0.78199740
     4  F          0.87380900       0.10672200       0.28199740
     5  F          0.62619100       0.60672200       0.78199740
     6  F          0.87380900       0.39327800       0.28199740
     7  F          0.37380900       0.10672200       0.21800260
     8  F          0.12619100       0.89327800       0.71800260
     9  C          0.37190110       0.31906700       0.47320160
    10  C          0.12809890       0.68093300      -0.02679840
    11  C          0.62809890       0.81906700       0.52679840
    12  C          0.87190110       0.18093300       0.02679840
    13  C          0.62809890       0.68093300       0.52679840
    14  C          0.87190110       0.31906700       0.02679840
    15  C          0.37190110       0.18093300       0.47320160
    16  C          0.12809890       0.81906700      -0.02679840
    17  H          0.37190000       0.38171000       0.67368000
    18  H          0.12810000       0.61829000       0.17368000
    19  H          0.62810000       0.88171000       0.32632000
    20  H          0.87190000       0.11829000       0.82632000
    21  H          0.62810000       0.61829000       0.32632000
    22  H          0.87190000       0.38171000       0.82632000
    23  H          0.37190000       0.11829000       0.67368000
    24  H          0.12810000       0.88171000       0.17368000
