data_GAFLAA
_symmetry_space_group_name_H-M    'P1'
_symmetry_Int_Tables_number       1
loop_
_symmetry_equiv_pos_site_id
_symmetry_equiv_pos_as_xyz
1 x,y,z
_cell_length_a                   4.401
_cell_length_b                   5.721
_cell_length_c                   6.501
_cell_angle_alpha                90.0
_cell_angle_beta                 90.0
_cell_angle_gamma                105.11
loop_
_atom_site_label
_atom_site_type_symbol
_atom_site_fract_x
_atom_site_fract_y
_atom_site_fract_z
     1  B          0.00200000       0.14600000       0.04200000
     2  B          0.49800000       0.35400000       0.54200000
     3  B         -0.00200000       0.85400000       0.95800000
     4  B          0.50200000       0.64600000       0.45800000
     5  H          0.80600000       0.16600000       0.14000000
     6  H          0.69400000       0.33400000       0.64000000
     7  H          0.19400000       0.83400000       0.86000000
     8  H          0.30600000       0.66600000       0.36000000
     9  H          0.19600000       0.29400000      -0.00500000
    10  H          0.30400000       0.20600000       0.49500000
    11  H          0.80400000       0.70600000       0.00500000
    12  H          0.69600000       0.79400000       0.50500000
    13  H          0.10400000      -0.01900000       0.11200000
    14  H          0.39600000       0.51900000       0.61200000
    15  H          0.89600000       0.01900000       0.88800000
    16  H          0.60400000       0.48100000       0.38800000
