data_GEQHEP
_symmetry_space_group_name_H-M    'P1'
_symmetry_Int_Tables_number       1
loop_
_symmetry_equiv_pos_site_id
_symmetry_equiv_pos_as_xyz
1 x,y,z
_cell_length_a                   7.40801
_cell_length_b                   7.40801
_cell_length_c                   12.8203
_cell_angle_alpha                90.0
_cell_angle_beta                 90.0
_cell_angle_gamma                90.0
loop_
_atom_site_label
_atom_site_type_symbol
_atom_site_fract_x
_atom_site_fract_y
_atom_site_fract_z
     1  Br         0.41697700       0.22270700       0.13102400
     2  Br         0.58302300       0.77729300       0.63102400
     3  Br         0.27729300       0.91697700       0.38102400
     4  Br         0.72270700       0.08302300       0.88102400
     5  Br         0.08302300       0.72270700       0.11897600
     6  Br         0.91697700       0.27729300       0.61897600
     7  Br         0.22270700       0.41697700       0.86897600
     8  Br         0.77729300       0.58302300       0.36897600
     9  S          0.51792000       0.51792000      -0.00000000
    10  S          0.48208000       0.48208000       0.50000000
    11  S         -0.01792000       0.01792000       0.25000000
    12  S          0.01792000      -0.01792000       0.75000000
    13  N          0.57556000       0.32036000       0.02784000
    14  N          0.42444000       0.67964000       0.52784000
    15  N          0.17964000       0.07556000       0.27784000
    16  N          0.82036000       0.92444000       0.77784000
    17  N          0.92444000       0.82036000       0.22216000
    18  N          0.07556000       0.17964000       0.72216000
    19  N          0.32036000       0.57556000       0.97216000
    20  N          0.67964000       0.42444000       0.47216000
    21  C          0.56298000       0.67758000       0.09975000
    22  C          0.43702000       0.32242000       0.59975000
    23  C          0.82242000       0.06298000       0.34975000
    24  C          0.17758000       0.93702000       0.84975000
    25  C          0.93702000       0.17758000       0.15025000
    26  C          0.06298000       0.82242000       0.65025000
    27  C          0.67758000       0.56298000       0.90025000
    28  C          0.32242000       0.43702000       0.40025000
    29  H          0.68548000       0.65908000       0.12655000
    30  H          0.31452000       0.34092000       0.62655000
    31  H          0.84092000       0.18548000       0.37655000
    32  H          0.15908000       0.81452000       0.87655000
    33  H          0.81452000       0.15908000       0.12345000
    34  H          0.18548000       0.84092000       0.62345000
    35  H          0.65908000       0.68548000       0.87345000
    36  H          0.34092000       0.31452000       0.37345000
    37  H          0.47588000       0.66198000       0.15655000
    38  H          0.52412000       0.33802000       0.65655000
    39  H          0.83802000       0.97588000       0.40655000
    40  H          0.16198000       0.02412000       0.90655000
    41  H          0.02412000       0.16198000       0.09345000
    42  H          0.97588000       0.83802000       0.59345000
    43  H          0.66198000       0.47588000       0.84345000
    44  H          0.33802000       0.52412000       0.34345000
    45  H          0.55248000       0.79988000       0.07125000
    46  H          0.44752000       0.20012000       0.57125000
    47  H          0.70012000       0.05248000       0.32125000
    48  H          0.29988000       0.94752000       0.82125000
    49  H          0.94752000       0.29988000       0.17875000
    50  H          0.05248000       0.70012000       0.67875000
    51  H          0.79988000       0.55248000       0.92875000
    52  H          0.20012000       0.44752000       0.42875000
