data_GEYREH02
_symmetry_space_group_name_H-M    'P1'
_symmetry_Int_Tables_number       1
loop_
_symmetry_equiv_pos_site_id
_symmetry_equiv_pos_as_xyz
1 x,y,z
_cell_length_a                   5.7681
_cell_length_b                   6.0781
_cell_length_c                   8.0802
_cell_angle_alpha                90.0
_cell_angle_beta                 107.013
_cell_angle_gamma                90.0
loop_
_atom_site_label
_atom_site_type_symbol
_atom_site_fract_x
_atom_site_fract_y
_atom_site_fract_z
     1  C          0.56501300       0.60361200       0.04511000
     2  C          0.93498700       0.10361200       0.45489000
     3  C          0.43498700       0.39638800       0.95489000
     4  C          0.06501300       0.89638800       0.54511000
     5  F          0.39971200       0.75017000       0.05631000
     6  F          0.10028800       0.25017000       0.44369000
     7  F          0.60028800       0.24983000       0.94369000
     8  F          0.89971200       0.74983000       0.55631000
     9  F          0.70168000       0.54898000       0.20256000
    10  F          0.79832000       0.04898000       0.29744000
    11  F          0.29832000       0.45102000       0.79744000
    12  F          0.20168000       0.95102000       0.70256000
    13  Br         0.76158150       0.72885140       0.91450860
    14  Br         0.73841850       0.22885140       0.58549140
    15  Br         0.23841850       0.27114860       0.08549140
    16  Br         0.26158150       0.77114860       0.41450860
