data_GIRXOU
_symmetry_space_group_name_H-M    'P1'
_symmetry_Int_Tables_number       1
loop_
_symmetry_equiv_pos_site_id
_symmetry_equiv_pos_as_xyz
1 x,y,z
_cell_length_a                   6.5467
_cell_length_b                   8.6004
_cell_length_c                   5.5085
_cell_angle_alpha                90.0
_cell_angle_beta                 102.373
_cell_angle_gamma                90.0
loop_
_atom_site_label
_atom_site_type_symbol
_atom_site_fract_x
_atom_site_fract_y
_atom_site_fract_z
     1  Cl         0.10170000      -0.00000000       0.48440000
     2  Cl         0.89830000       0.50000000       0.51560000
     3  S          0.60990000       0.16710000       0.32350000
     4  S          0.39010000       0.66710000       0.67650000
     5  S          0.23030000       0.02640000       0.15520000
     6  S          0.76970000       0.52640000       0.84480000
     7  S          0.21610000       0.27340000       0.11480000
     8  S          0.78390000       0.77340000       0.88520000
     9  N          0.47560000       0.01050000       0.24360000
    10  N          0.52440000       0.51050000       0.75640000
    11  N          0.45580000       0.30390000       0.25490000
    12  N          0.54420000       0.80390000       0.74510000
    13  Cl         0.19750000       0.64590000       0.10280000
    14  Cl         0.80250000       0.14590000       0.89720000
