data_GOFQEY
_symmetry_space_group_name_H-M    'P1'
_symmetry_Int_Tables_number       1
loop_
_symmetry_equiv_pos_site_id
_symmetry_equiv_pos_as_xyz
1 x,y,z
_cell_length_a                   7.215515
_cell_length_b                   6.272512
_cell_length_c                   10.8282
_cell_angle_alpha                90.0
_cell_angle_beta                 90.0
_cell_angle_gamma                90.0
loop_
_atom_site_label
_atom_site_type_symbol
_atom_site_fract_x
_atom_site_fract_y
_atom_site_fract_z
     1  C          0.10683000       0.19713000       0.39095190
     2  C          0.39317000       0.80287000       0.89095190
     3  C          0.89317000       0.69713000       0.10904810
     4  C          0.60683000       0.30287000       0.60904810
     5  C          0.89317000       0.80287000       0.60904810
     6  C          0.60683000       0.19713000       0.10904810
     7  C          0.10683000       0.30287000       0.89095190
     8  C          0.39317000       0.69713000       0.39095190
     9  C          0.06413000       0.09653000       0.51150170
    10  C          0.43587000       0.90347000       0.01150170
    11  C          0.93587000       0.59653000      -0.01150170
    12  C          0.56413000       0.40347000       0.48849830
    13  C          0.93587000       0.90347000       0.48849830
    14  C          0.56413000       0.09653000      -0.01150170
    15  C          0.06413000       0.40347000       0.01150170
    16  C          0.43587000       0.59653000       0.51150170
    17  H         -0.00030000       0.20180000       0.56590000
    18  H          0.50030000       0.79820000       0.06590000
    19  H          0.00030000       0.70180000       0.93410000
    20  H          0.49970000       0.29820000       0.43410000
    21  H          0.00030000       0.79820000       0.43410000
    22  H          0.49970000       0.20180000       0.93410000
    23  H         -0.00030000       0.29820000       0.06590000
    24  H          0.50030000       0.70180000       0.56590000
    25  N          0.14342000       0.27283000       0.29811140
    26  N          0.35658000       0.72717000       0.79811140
    27  N          0.85658000       0.77283000       0.20188860
    28  N          0.64342000       0.22717000       0.70188860
    29  N          0.85658000       0.72717000       0.70188860
    30  N          0.64342000       0.27283000       0.20188860
    31  N          0.14342000       0.22717000       0.79811140
    32  N          0.35658000       0.77283000       0.29811140
    33  O          0.23079180       0.02972000       0.56832130
    34  O          0.26920820       0.97028000       0.06832130
    35  O          0.76920820       0.52972000       0.93167870
    36  O          0.73079180       0.47028000       0.43167870
    37  O          0.76920820       0.97028000       0.43167870
    38  O          0.73079180       0.02972000       0.93167870
    39  O          0.23079180       0.47028000       0.06832130
    40  O          0.26920820       0.52972000       0.56832130
    41  H          0.22930000       0.08540000       0.64220000
    42  H          0.27070000       0.91460000       0.14220000
    43  H          0.77070000       0.58540000       0.85780000
    44  H          0.72930000       0.41460000       0.35780000
    45  H          0.77070000       0.91460000       0.35780000
    46  H          0.72930000       0.08540000       0.85780000
    47  H          0.22930000       0.41460000       0.14220000
    48  H          0.27070000       0.58540000       0.64220000
