data_GOHREA
_symmetry_space_group_name_H-M    'P1'
_symmetry_Int_Tables_number       1
loop_
_symmetry_equiv_pos_site_id
_symmetry_equiv_pos_as_xyz
1 x,y,z
_cell_length_a                   8.8474
_cell_length_b                   8.8474
_cell_length_c                   10.3215
_cell_angle_alpha                90.0
_cell_angle_beta                 90.0
_cell_angle_gamma                120.0
loop_
_atom_site_label
_atom_site_type_symbol
_atom_site_fract_x
_atom_site_fract_y
_atom_site_fract_z
     1  B          0.18435000       0.12174000      -0.00145000
     2  B          0.51768333       0.78840667       0.66521667
     3  B          0.85101667       0.45507333       0.33188333
     4  B          0.87826000       0.06261000      -0.00145000
     5  B          0.93739000       0.81565000      -0.00145000
     6  B          0.21159333       0.72927667       0.66521667
     7  B          0.27072333       0.48231667       0.66521667
     8  B          0.54492667       0.39594333       0.33188333
     9  B          0.60405667       0.14898333       0.33188333
    10  N          0.11684000       0.93455000      -0.00055000
    11  N          0.45017333       0.60121667       0.66611667
    12  N          0.78350667       0.26788333       0.33278333
    13  N          0.06545000       0.18229000      -0.00055000
    14  N          0.81771000       0.88316000      -0.00055000
    15  N          0.39878333       0.84895667       0.66611667
    16  N          0.15104333       0.54982667       0.66611667
    17  N          0.73211667       0.51562333       0.33278333
    18  N          0.48437667       0.21649333       0.33278333
    19  Cl         0.40641000       0.26422000      -0.00511000
    20  Cl         0.73974333       0.93088667       0.66155667
    21  Cl         0.07307667       0.59755333       0.32822333
    22  Cl         0.73578000       0.14219000      -0.00511000
    23  Cl         0.85781000       0.59359000      -0.00511000
    24  Cl         0.06911333       0.80885667       0.66155667
    25  Cl         0.19114333       0.26025667       0.66155667
    26  Cl         0.40244667       0.47552333       0.32822333
    27  Cl         0.52447667       0.92692333       0.32822333
    28  Cl         0.26672000       0.86038000       0.00000000
    29  Cl         0.60005333       0.52704667       0.66666667
    30  Cl         0.93338667       0.19371333       0.33333333
    31  Cl         0.13962000       0.40634000       0.00000000
    32  Cl         0.59366000       0.73328000       0.00000000
    33  Cl         0.47295333       0.07300667       0.66666667
    34  Cl         0.92699333       0.39994667       0.66666667
    35  Cl         0.80628667       0.73967333       0.33333333
    36  Cl         0.26032667       0.06661333       0.33333333
