data_GUCBEM
_symmetry_space_group_name_H-M    'P1'
_symmetry_Int_Tables_number       1
loop_
_symmetry_equiv_pos_site_id
_symmetry_equiv_pos_as_xyz
1 x,y,z
_cell_length_a                   13.8203
_cell_length_b                   7.521015
_cell_length_c                   5.23201
_cell_angle_alpha                90.0
_cell_angle_beta                 108.973
_cell_angle_gamma                90.0
loop_
_atom_site_label
_atom_site_type_symbol
_atom_site_fract_x
_atom_site_fract_y
_atom_site_fract_z
     1  I          0.16011300      -0.00000000       0.35792700
     2  I          0.83988700      -0.00000000       0.64207300
     3  I          0.66011300       0.50000000       0.35792700
     4  I          0.33988700       0.50000000       0.64207300
     5  N          0.14263000       0.41126000       0.02837000
     6  N          0.85737000       0.41126000       0.97163000
     7  N          0.64263000       0.91126000       0.02837000
     8  N          0.35737000       0.91126000       0.97163000
     9  N          0.85737000       0.58874000       0.97163000
    10  N          0.14263000       0.58874000       0.02837000
    11  N          0.35737000       0.08874000       0.97163000
    12  N          0.64263000       0.08874000       0.02837000
    13  H          0.18460000       0.34112000       0.15714000
    14  H          0.81540000       0.34112000       0.84286000
    15  H          0.68460000       0.84112000       0.15714000
    16  H          0.31540000       0.84112000       0.84286000
    17  H          0.81540000       0.65888000       0.84286000
    18  H          0.18460000       0.65888000       0.15714000
    19  H          0.31540000       0.15888000       0.84286000
    20  H          0.68460000       0.15888000       0.15714000
    21  C          0.07903000       0.35246000       0.79371000
    22  C          0.92097000       0.35246000       0.20629000
    23  C          0.57903000       0.85246000       0.79371000
    24  C          0.42097000       0.85246000       0.20629000
    25  C          0.92097000       0.64754000       0.20629000
    26  C          0.07903000       0.64754000       0.79371000
    27  C          0.42097000       0.14754000       0.20629000
    28  C          0.57903000       0.14754000       0.79371000
    29  H          0.06250000       0.23011000       0.76187000
    30  H          0.93750000       0.23011000       0.23813000
    31  H          0.56250000       0.73011000       0.76187000
    32  H          0.43750000       0.73011000       0.23813000
    33  H          0.93750000       0.76989000       0.23813000
    34  H          0.06250000       0.76989000       0.76187000
    35  H          0.43750000       0.26989000       0.23813000
    36  H          0.56250000       0.26989000       0.76187000
    37  C          0.03684000       0.50000000       0.63768800
    38  C          0.96316000       0.50000000       0.36231200
    39  C          0.53684000      -0.00000000       0.63768800
    40  C          0.46316000      -0.00000000       0.36231200
