data_GUFMAV
_symmetry_space_group_name_H-M    'P1'
_symmetry_Int_Tables_number       1
loop_
_symmetry_equiv_pos_site_id
_symmetry_equiv_pos_as_xyz
1 x,y,z
_cell_length_a                   6.55331
_cell_length_b                   4.88481
_cell_length_c                   10.1482
_cell_angle_alpha                90.0
_cell_angle_beta                 107.99011
_cell_angle_gamma                90.0
loop_
_atom_site_label
_atom_site_type_symbol
_atom_site_fract_x
_atom_site_fract_y
_atom_site_fract_z
     1  O          0.73572000       0.00433000       0.81622000
     2  O          0.76428000       0.50433000       0.68378000
     3  O          0.26428000      -0.00433000       0.18378000
     4  O          0.23572000       0.49567000       0.31622000
     5  H          0.71883900       0.15826100       0.77252700
     6  H          0.78116100       0.65826100       0.72747300
     7  H          0.28116100       0.84173900       0.22747300
     8  H          0.21883900       0.34173900       0.27252700
     9  C          0.61963000       0.00833000       0.90672000
    10  C          0.88037000       0.50833000       0.59328000
    11  C          0.38037000      -0.00833000       0.09328000
    12  C          0.11963000       0.49167000       0.40672000
    13  C          0.66192000       0.81657000       0.01132000
    14  C          0.83808000       0.31657000       0.48868000
    15  C          0.33808000       0.18343000      -0.01132000
    16  C          0.16192000       0.68343000       0.51132000
    17  C          0.45552000       0.19123000       0.89727150
    18  C          0.04448000       0.69123000       0.60272850
    19  C          0.54448000       0.80877000       0.10272850
    20  C          0.95552000       0.30877000       0.39727150
    21  F          0.81892000       0.63338000       0.02410140
    22  F          0.68108000       0.13338000       0.47589860
    23  F          0.18108000       0.36662000       0.97589860
    24  F          0.31892000       0.86662000       0.52410140
    25  F          0.40882000       0.37872000       0.79550120
    26  F          0.09118000       0.87872000       0.70449880
    27  F          0.59118000       0.62128000       0.20449880
    28  F          0.90882000       0.12128000       0.29550120
