data_GUFMEZ
_symmetry_space_group_name_H-M    'P1'
_symmetry_Int_Tables_number       1
loop_
_symmetry_equiv_pos_site_id
_symmetry_equiv_pos_as_xyz
1 x,y,z
_cell_length_a                   8.89072
_cell_length_b                   4.73161
_cell_length_c                   11.06123
_cell_angle_alpha                90.0
_cell_angle_beta                 92.1671
_cell_angle_gamma                90.0
loop_
_atom_site_label
_atom_site_type_symbol
_atom_site_fract_x
_atom_site_fract_y
_atom_site_fract_z
     1  O          0.20926000       0.55591400       0.82164000
     2  O          0.29074000       0.05591400       0.67836000
     3  O          0.79074000       0.44408600       0.17836000
     4  O          0.70926000       0.94408600       0.32164000
     5  H          0.17796000       0.66401400       0.76844000
     6  H          0.32204000       0.16401400       0.73156000
     7  H          0.82204000       0.33598600       0.23156000
     8  H          0.67796000       0.83598600       0.26844000
     9  Br         0.32011100       0.15863000       0.01217100
    10  Br         0.17988900       0.65863000       0.48782900
    11  Br         0.67988900       0.84137000      -0.01217100
    12  Br         0.82011100       0.34137000       0.51217100
    13  Br         0.92827900       0.92242000       0.77056100
    14  Br         0.57172100       0.42242000       0.72943900
    15  Br         0.07172100       0.07758000       0.22943900
    16  Br         0.42827900       0.57758000       0.27056100
    17  C          0.10529000       0.53441800       0.90892000
    18  C          0.39471000       0.03441800       0.59108000
    19  C          0.89471000       0.46558200       0.09108000
    20  C          0.60529000       0.96558200       0.40892000
    21  C          0.13568000       0.35420000       0.00628000
    22  C          0.36432000       0.85420000       0.49372000
    23  C          0.86432000       0.64580000      -0.00628000
    24  C          0.63568000       0.14580000       0.50628000
    25  C          0.96891000       0.67901900       0.90362000
    26  C          0.53109000       0.17901900       0.59638000
    27  C          0.03109000       0.32098100       0.09638000
    28  C          0.46891000       0.82098100       0.40362000
