data_HBMEBZ01
_symmetry_space_group_name_H-M    'P1'
_symmetry_Int_Tables_number       1
loop_
_symmetry_equiv_pos_site_id
_symmetry_equiv_pos_as_xyz
1 x,y,z
_cell_length_a                   16.37674
_cell_length_b                   16.37674
_cell_length_c                   5.34431
_cell_angle_alpha                90.0
_cell_angle_beta                 90.0
_cell_angle_gamma                120.0
loop_
_atom_site_label
_atom_site_type_symbol
_atom_site_fract_x
_atom_site_fract_y
_atom_site_fract_z
     1  Br         0.91121200       0.53610200       0.65361300
     2  Br         0.46389800       0.37511000       0.65361300
     3  Br         0.62489000       0.08878800       0.65361300
     4  Br         0.57787867       0.86943533      -0.01305367
     5  Br         0.13056467       0.70844333      -0.01305367
     6  Br         0.29155667       0.42212133      -0.01305367
     7  Br         0.24454533       0.20276867       0.32027967
     8  Br         0.79723133       0.04177667       0.32027967
     9  Br         0.95822333       0.75545467       0.32027967
    10  Br         0.08878800       0.46389800       0.34638700
    11  Br         0.53610200       0.62489000       0.34638700
    12  Br         0.37511000       0.91121200       0.34638700
    13  Br         0.42212133       0.13056467       0.01305367
    14  Br         0.86943533       0.29155667       0.01305367
    15  Br         0.70844333       0.57787867       0.01305367
    16  Br         0.75545467       0.79723133       0.67972033
    17  Br         0.20276867       0.95822333       0.67972033
    18  Br         0.04177667       0.24454533       0.67972033
    19  C          0.75973100       0.40894100       0.33163000
    20  C          0.59105900       0.35079000       0.33163000
    21  C          0.64921000       0.24026900       0.33163000
    22  C          0.42639767       0.74227433       0.66496333
    23  C          0.25772567       0.68412333       0.66496333
    24  C          0.31587667       0.57360233       0.66496333
    25  C          0.09306433       0.07560767      -0.00170333
    26  C          0.92439233       0.01745667      -0.00170333
    27  C          0.98254333       0.90693567      -0.00170333
    28  C          0.24026900       0.59105900       0.66837000
    29  C          0.40894100       0.64921000       0.66837000
    30  C          0.35079000       0.75973100       0.66837000
    31  C          0.57360233       0.25772567       0.33503667
    32  C          0.74227433       0.31587667       0.33503667
    33  C          0.68412333       0.42639767       0.33503667
    34  C          0.90693567       0.92439233       0.00170333
    35  C          0.07560767       0.98254333       0.00170333
    36  C          0.01745667       0.09306433       0.00170333
    37  C          0.85912100       0.48985100       0.31733000
    38  C          0.51014900       0.36927000       0.31733000
    39  C          0.63073000       0.14087900       0.31733000
    40  C          0.52578767       0.82318433       0.65066333
    41  C          0.17681567       0.70260333       0.65066333
    42  C          0.29739667       0.47421233       0.65066333
    43  C          0.19245433       0.15651767      -0.01600333
    44  C          0.84348233       0.03593667      -0.01600333
    45  C          0.96406333       0.80754567      -0.01600333
    46  C          0.14087900       0.51014900       0.68267000
    47  C          0.48985100       0.63073000       0.68267000
    48  C          0.36927000       0.85912100       0.68267000
    49  C          0.47421233       0.17681567       0.34933667
    50  C          0.82318433       0.29739667       0.34933667
    51  C          0.70260333       0.52578767       0.34933667
    52  C          0.80754567       0.84348233       0.01600333
    53  C          0.15651767       0.96406333       0.01600333
    54  C          0.03593667       0.19245433       0.01600333
    55  H          0.90051400       0.47281400       0.24140000
    56  H          0.52718600       0.42770000       0.24140000
    57  H          0.57230000       0.09948600       0.24140000
    58  H          0.56718067       0.80614733       0.57473333
    59  H          0.19385267       0.76103333       0.57473333
    60  H          0.23896667       0.43281933       0.57473333
    61  H          0.23384733       0.13948067       0.90806667
    62  H          0.86051933       0.09436667       0.90806667
    63  H          0.90563333       0.76615267       0.90806667
    64  H          0.09948600       0.52718600       0.75860000
    65  H          0.47281400       0.57230000       0.75860000
    66  H          0.42770000       0.90051400       0.75860000
    67  H          0.43281933       0.19385267       0.42526667
    68  H          0.80614733       0.23896667       0.42526667
    69  H          0.76103333       0.56718067       0.42526667
    70  H          0.76615267       0.86051933       0.09193333
    71  H          0.13948067       0.90563333       0.09193333
    72  H          0.09436667       0.23384733       0.09193333
    73  H          0.86421300       0.54371300       0.23140000
    74  H          0.45628700       0.32050000       0.23140000
    75  H          0.67950000       0.13578700       0.23140000
    76  H          0.53087967       0.87704633       0.56473333
    77  H          0.12295367       0.65383333       0.56473333
    78  H          0.34616667       0.46912033       0.56473333
    79  H          0.19754633       0.21037967       0.89806667
    80  H          0.78962033       0.98716667       0.89806667
    81  H          0.01283333       0.80245367       0.89806667
    82  H          0.13578700       0.45628700       0.76860000
    83  H          0.54371300       0.67950000       0.76860000
    84  H          0.32050000       0.86421300       0.76860000
    85  H          0.46912033       0.12295367       0.43526667
    86  H          0.87704633       0.34616667       0.43526667
    87  H          0.65383333       0.53087967       0.43526667
    88  H          0.80245367       0.78962033       0.10193333
    89  H          0.21037967       0.01283333       0.10193333
    90  H         -0.01283333       0.19754633       0.10193333
