data_HBRBEN02
_symmetry_space_group_name_H-M    'P1'
_symmetry_Int_Tables_number       1
loop_
_symmetry_equiv_pos_site_id
_symmetry_equiv_pos_as_xyz
1 x,y,z
_cell_length_a                   8.326216
_cell_length_b                   3.94918
_cell_length_c                   15.2713
_cell_angle_alpha                90.0
_cell_angle_beta                 92.9293
_cell_angle_gamma                90.0
loop_
_atom_site_label
_atom_site_type_symbol
_atom_site_fract_x
_atom_site_fract_y
_atom_site_fract_z
     1  Br         0.22935400       0.17252110       0.36071200
     2  Br         0.27064600       0.67252110       0.13928800
     3  Br         0.77064600       0.82747890       0.63928800
     4  Br         0.72935400       0.32747890       0.86071200
     5  Br         0.57935400       0.40934100       0.29333200
     6  Br         0.92064600       0.90934100       0.20666800
     7  Br         0.42064600       0.59065900       0.70666800
     8  Br         0.07935400       0.09065900       0.79333200
     9  Br         0.15396400       0.23982100       0.56891200
    10  Br         0.34603600       0.73982100       0.93108800
    11  Br         0.84603600       0.76017900       0.43108800
    12  Br         0.65396400       0.26017900       0.06891200
    13  C          0.35204000       0.39129000       0.52993000
    14  C          0.14796000       0.89129000       0.97007000
    15  C          0.64796000       0.60871000       0.47007000
    16  C          0.85204000       0.10871000       0.02993000
    17  C          0.38434000       0.35729000       0.44122000
    18  C          0.11566000       0.85729000       0.05878000
    19  C          0.61566000       0.64271000       0.55878000
    20  C          0.88434000       0.14271000       0.94122000
    21  C          0.53334000       0.46721000       0.41172000
    22  C          0.96666000      -0.03279000       0.08828000
    23  C          0.46666000       0.53279000       0.58828000
    24  C          0.03334000       0.03279000       0.91172000
