data_HCLBNZ
_symmetry_space_group_name_H-M    'P1'
_symmetry_Int_Tables_number       1
loop_
_symmetry_equiv_pos_site_id
_symmetry_equiv_pos_as_xyz
1 x,y,z
_cell_length_a                   8.08
_cell_length_b                   3.87
_cell_length_c                   16.65
_cell_angle_alpha                90.0
_cell_angle_beta                 117.0
_cell_angle_gamma                90.0
loop_
_atom_site_label
_atom_site_type_symbol
_atom_site_fract_x
_atom_site_fract_y
_atom_site_fract_z
     1  Cl         0.40800000       0.24500000       0.06600000
     2  Cl         0.59200000       0.74500000       0.43400000
     3  Cl         0.59200000       0.75500000       0.93400000
     4  Cl         0.40800000       0.25500000       0.56600000
     5  Cl         0.27900000      -0.03300000       0.20400000
     6  Cl         0.72100000       0.46700000       0.29600000
     7  Cl         0.72100000       0.03300000       0.79600000
     8  Cl         0.27900000       0.53300000       0.70400000
     9  Cl         0.12800000       0.27800000       0.86200000
    10  Cl         0.87200000       0.77800000       0.63800000
    11  Cl         0.87200000       0.72200000       0.13800000
    12  Cl         0.12800000       0.22200000       0.36200000
    13  C          0.18300000       0.11100000       0.03000000
    14  C          0.81700000       0.61100000       0.47000000
    15  C          0.81700000       0.88900000       0.97000000
    16  C          0.18300000       0.38900000       0.53000000
    17  C          0.12600000      -0.01500000       0.09200000
    18  C          0.87400000       0.48500000       0.40800000
    19  C          0.87400000       0.01500000       0.90800000
    20  C          0.12600000       0.51500000       0.59200000
    21  C          0.05800000       0.12500000       0.93800000
    22  C          0.94200000       0.62500000       0.56200000
    23  C          0.94200000       0.87500000       0.06200000
    24  C          0.05800000       0.37500000       0.43800000
