data_HEDGIG
_symmetry_space_group_name_H-M    'P1'
_symmetry_Int_Tables_number       1
loop_
_symmetry_equiv_pos_site_id
_symmetry_equiv_pos_as_xyz
1 x,y,z
_cell_length_a                   6.0311
_cell_length_b                   18.4264
_cell_length_c                   8.7412
_cell_angle_alpha                90.0
_cell_angle_beta                 90.0
_cell_angle_gamma                90.0
loop_
_atom_site_label
_atom_site_type_symbol
_atom_site_fract_x
_atom_site_fract_y
_atom_site_fract_z
     1  I          0.27267800       0.11896200       0.02689500
     2  I          0.72732200       0.88103800       0.52689500
     3  I          0.27267800       0.38103800       0.97310500
     4  I          0.72732200       0.61896200       0.47310500
     5  I          0.72732200       0.88103800       0.97310500
     6  I          0.27267800       0.11896200       0.47310500
     7  I          0.72732200       0.61896200       0.02689500
     8  I          0.27267800       0.38103800       0.52689500
     9  I          0.84426110       0.24546300       0.25000000
    10  I          0.15573890       0.75453700       0.75000000
    11  I          0.84426110       0.25453700       0.75000000
    12  I          0.15573890       0.74546300       0.25000000
    13  P          0.03664000       0.12992120       0.25000000
    14  P          0.96336000       0.87007880       0.75000000
    15  P          0.03664000       0.37007880       0.75000000
    16  P          0.96336000       0.62992120       0.25000000
    17  C          0.83781600       0.05495000       0.25000000
    18  C          0.16218400       0.94505000       0.75000000
    19  C          0.83781600       0.44505000       0.75000000
    20  C          0.16218400       0.55495000       0.25000000
    21  H          0.74441600       0.05915000       0.33960000
    22  H          0.25558400       0.94085000       0.83960000
    23  H          0.74441600       0.44085000       0.66040000
    24  H          0.25558400       0.55915000       0.16040000
    25  H          0.25558400       0.94085000       0.66040000
    26  H          0.74441600       0.05915000       0.16040000
    27  H          0.25558400       0.55915000       0.33960000
    28  H          0.74441600       0.44085000       0.83960000
    29  H          0.91551600       0.01125000       0.25000000
    30  H          0.08448400       0.98875000       0.75000000
    31  H          0.91551600       0.48875000       0.75000000
    32  H          0.08448400       0.51125000       0.25000000
    33  I          0.63943100       0.41166300       0.25000000
    34  I          0.36056900       0.58833700       0.75000000
    35  I          0.63943100       0.08833700       0.75000000
    36  I          0.36056900       0.91166300       0.25000000
