data_HEXCET
_symmetry_space_group_name_H-M    'P1'
_symmetry_Int_Tables_number       1
loop_
_symmetry_equiv_pos_site_id
_symmetry_equiv_pos_as_xyz
1 x,y,z
_cell_length_a                   11.56
_cell_length_b                   10.18
_cell_length_c                   6.42
_cell_angle_alpha                90.0
_cell_angle_beta                 90.0
_cell_angle_gamma                90.0
loop_
_atom_site_label
_atom_site_type_symbol
_atom_site_fract_x
_atom_site_fract_y
_atom_site_fract_z
     1  C          0.11100000       0.25000000       0.78800000
     2  C          0.38900000       0.75000000       0.28800000
     3  C          0.61100000       0.25000000       0.71200000
     4  C          0.88900000       0.75000000       0.21200000
     5  C          0.13900000       0.25000000       0.02300000
     6  C          0.36100000       0.75000000       0.52300000
     7  C          0.63900000       0.25000000       0.47700000
     8  C          0.86100000       0.75000000       0.97700000
     9  Cl         0.24600000       0.25000000       0.66000000
    10  Cl         0.25400000       0.75000000       0.16000000
    11  Cl         0.74600000       0.25000000       0.84000000
    12  Cl         0.75400000       0.75000000       0.34000000
    13  Cl         0.00800000       0.25000000       0.16800000
    14  Cl         0.49200000       0.75000000       0.66800000
    15  Cl         0.50800000       0.25000000       0.33200000
    16  Cl        -0.00800000       0.75000000       0.83200000
    17  Cl         0.03000000       0.39300000       0.72200000
    18  Cl         0.47000000       0.60700000       0.22200000
    19  Cl         0.53000000       0.10700000       0.77800000
    20  Cl         0.97000000       0.89300000       0.27800000
    21  Cl         0.97000000       0.60700000       0.27800000
    22  Cl         0.53000000       0.39300000       0.77800000
    23  Cl         0.47000000       0.89300000       0.22200000
    24  Cl         0.03000000       0.10700000       0.72200000
    25  Cl         0.22100000       0.10800000       0.08600000
    26  Cl         0.27900000       0.89200000       0.58600000
    27  Cl         0.72100000       0.39200000       0.41400000
    28  Cl         0.77900000       0.60800000       0.91400000
    29  Cl         0.77900000       0.89200000       0.91400000
    30  Cl         0.72100000       0.10800000       0.41400000
    31  Cl         0.27900000       0.60800000       0.58600000
    32  Cl         0.22100000       0.39200000       0.08600000
