data_HFBENZ15
_symmetry_space_group_name_H-M    'P1'
_symmetry_Int_Tables_number       1
loop_
_symmetry_equiv_pos_site_id
_symmetry_equiv_pos_as_xyz
1 x,y,z
_cell_length_a                   12.8792
_cell_length_b                   7.3833
_cell_length_c                   8.4491
_cell_angle_alpha                90.0
_cell_angle_beta                 135.942
_cell_angle_gamma                90.0
loop_
_atom_site_label
_atom_site_type_symbol
_atom_site_fract_x
_atom_site_fract_y
_atom_site_fract_z
     1  F          0.72542180       0.56052000       0.53883000
     2  F          0.27457820       0.56052000       0.96117000
     3  F          0.22542180       0.06052000       0.53883000
     4  F          0.77457820       0.06052000       0.96117000
     5  F          0.27457820       0.43948000       0.46117000
     6  F          0.72542180       0.43948000       0.03883000
     7  F          0.77457820       0.93948000       0.46117000
     8  F          0.22542180       0.93948000       0.03883000
     9  F          0.63970190       0.21813000       0.51142000
    10  F          0.36029810       0.21813000      -0.01142000
    11  F          0.13970190       0.71813000       0.51142000
    12  F          0.86029810       0.71813000      -0.01142000
    13  F          0.36029810       0.78187000       0.48858000
    14  F          0.63970190       0.78187000       0.01142000
    15  F          0.86029810       0.28187000       0.48858000
    16  F          0.13970190       0.28187000       0.01142000
    17  F          0.41632000       0.15753000       0.47832000
    18  F          0.58368000       0.15753000       0.02168000
    19  F          0.91632000       0.65753000       0.47832000
    20  F          0.08368000       0.65753000       0.02168000
    21  F          0.58368000       0.84247000       0.52168000
    22  F          0.41632000       0.84247000      -0.02168000
    23  F          0.08368000       0.34247000       0.52168000
    24  F          0.91632000       0.34247000      -0.02168000
    25  C          0.57044000       0.35715000       0.50665000
    26  C          0.42956000       0.35715000      -0.00665000
    27  C          0.07044000       0.85715000       0.50665000
    28  C          0.92956000       0.85715000      -0.00665000
    29  C          0.42956000       0.64285000       0.49335000
    30  C          0.57044000       0.64285000       0.00665000
    31  C          0.92956000       0.14285000       0.49335000
    32  C          0.07044000       0.14285000       0.00665000
    33  C          0.45784000       0.32425000       0.48924000
    34  C          0.54216000       0.32425000       0.01076000
    35  C          0.95784000       0.82425000       0.48924000
    36  C          0.04216000       0.82425000       0.01076000
    37  C          0.54216000       0.67575000       0.51076000
    38  C          0.45784000       0.67575000      -0.01076000
    39  C          0.04216000       0.17575000       0.51076000
    40  C          0.95784000       0.17575000      -0.01076000
    41  C          0.61514000       0.53094000       0.52145000
    42  C          0.38486000       0.53094000      -0.02145000
    43  C          0.11514000       0.03094000       0.52145000
    44  C          0.88486000       0.03094000      -0.02145000
    45  C          0.38486000       0.46906000       0.47855000
    46  C          0.61514000       0.46906000       0.02145000
    47  C          0.88486000       0.96906000       0.47855000
    48  C          0.11514000       0.96906000       0.02145000
