data_HIBENZ01
_symmetry_space_group_name_H-M    'P1'
_symmetry_Int_Tables_number       1
loop_
_symmetry_equiv_pos_site_id
_symmetry_equiv_pos_as_xyz
1 x,y,z
_cell_length_a                   8.872
_cell_length_b                   4.291
_cell_length_c                   16.283
_cell_angle_alpha                90.0
_cell_angle_beta                 93.02
_cell_angle_gamma                90.0
loop_
_atom_site_label
_atom_site_type_symbol
_atom_site_fract_x
_atom_site_fract_y
_atom_site_fract_z
     1  C          0.38970000       0.35440000       0.44690000
     2  C          0.11030000       0.85440000       0.05310000
     3  C          0.61030000       0.64560000       0.55310000
     4  C          0.88970000       0.14560000       0.94690000
     5  C          0.52640000       0.47230000       0.41630000
     6  C          0.97360000      -0.02770000       0.08370000
     7  C          0.47360000       0.52770000       0.58370000
     8  C          0.02640000       0.02770000       0.91630000
     9  C          0.35950000       0.39990000       0.52970000
    10  C          0.14050000       0.89990000       0.97030000
    11  C          0.64050000       0.60010000       0.47030000
    12  C          0.85950000       0.10010000       0.02970000
    13  I          0.22891000       0.17021000       0.36145000
    14  I          0.27109000       0.67021000       0.13855000
    15  I          0.77109000       0.82979000       0.63855000
    16  I          0.72891000       0.32979000       0.86145000
    17  I          0.57741000       0.41289000       0.29266000
    18  I          0.92259000       0.91289000       0.20734000
    19  I          0.42259000       0.58711000       0.70734000
    20  I          0.07741000       0.08711000       0.79266000
    21  I          0.15530000       0.23136000       0.56994000
    22  I          0.34470000       0.73136000       0.93006000
    23  I          0.84470000       0.76864000       0.43006000
    24  I          0.65530000       0.26864000       0.06994000
