data_HIPROR
_symmetry_space_group_name_H-M    'P1'
_symmetry_Int_Tables_number       1
loop_
_symmetry_equiv_pos_site_id
_symmetry_equiv_pos_as_xyz
1 x,y,z
_cell_length_a                   11.02625
_cell_length_b                   7.26983
_cell_length_c                   13.31118
_cell_angle_alpha                90.0
_cell_angle_beta                 90.0
_cell_angle_gamma                90.0
loop_
_atom_site_label
_atom_site_type_symbol
_atom_site_fract_x
_atom_site_fract_y
_atom_site_fract_z
     1  C          0.05274000       0.27765000       0.42633000
     2  C          0.44726000       0.72235000       0.92633000
     3  C          0.94726000       0.77765000       0.07367000
     4  C          0.55274000       0.22235000       0.57367000
     5  C          0.94726000       0.72235000       0.57367000
     6  C          0.55274000       0.27765000       0.07367000
     7  C          0.05274000       0.22235000       0.92633000
     8  C          0.44726000       0.77765000       0.42633000
     9  C          0.17154000       0.36905000       0.43063000
    10  C          0.32846000       0.63095000       0.93063000
    11  C          0.82846000       0.86905000       0.06937000
    12  C          0.67154000       0.13095000       0.56937000
    13  C          0.82846000       0.63095000       0.56937000
    14  C          0.67154000       0.36905000       0.06937000
    15  C          0.17154000       0.13095000       0.93063000
    16  C          0.32846000       0.86905000       0.43063000
    17  Cl         0.23210100       0.45836140       0.32219700
    18  Cl         0.26789900       0.54163860       0.82219700
    19  Cl         0.76789900       0.95836140       0.17780300
    20  Cl         0.73210100       0.04163860       0.67780300
    21  Cl         0.76789900       0.54163860       0.67780300
    22  Cl         0.73210100       0.45836140       0.17780300
    23  Cl         0.23210100       0.04163860       0.82219700
    24  Cl         0.26789900       0.95836140       0.32219700
    25  N          0.23284000       0.38565000       0.51203000
    26  N          0.26716000       0.61435000       0.01203000
    27  N          0.76716000       0.88565000       0.98797000
    28  N          0.73284000       0.11435000       0.48797000
    29  N          0.76716000       0.61435000       0.48797000
    30  N          0.73284000       0.38565000       0.98797000
    31  N          0.23284000       0.11435000       0.01203000
    32  N          0.26716000       0.88565000       0.51203000
    33  S          0.16974110       0.30243130       0.61408800
    34  S          0.33025890       0.69756870       0.11408800
    35  S          0.83025890       0.80243130       0.88591200
    36  S          0.66974110       0.19756870       0.38591200
    37  S          0.83025890       0.69756870       0.38591200
    38  S          0.66974110       0.30243130       0.88591200
    39  S          0.16974110       0.19756870       0.11408800
    40  S          0.33025890       0.80243130       0.61408800
    41  S          0.01168100       0.21121130       0.54719800
    42  S          0.48831900       0.78878870       0.04719800
    43  S         -0.01168100       0.71121130       0.95280200
    44  S          0.51168100       0.28878870       0.45280200
    45  S         -0.01168100       0.78878870       0.45280200
    46  S          0.51168100       0.21121130       0.95280200
    47  S          0.01168100       0.28878870       0.04719800
    48  S          0.48831900       0.71121130       0.54719800
    49  S          0.97289100       0.23304170       0.32534800
    50  S          0.52710900       0.76695830       0.82534800
    51  S          0.02710900       0.73304170       0.17465200
    52  S          0.47289100       0.26695830       0.67465200
    53  S          0.02710900       0.76695830       0.67465200
    54  S          0.47289100       0.23304170       0.17465200
    55  S          0.97289100       0.26695830       0.82534800
    56  S          0.52710900       0.73304170       0.32534800
