data_HIPVUA
_symmetry_space_group_name_H-M    'P1'
_symmetry_Int_Tables_number       1
loop_
_symmetry_equiv_pos_site_id
_symmetry_equiv_pos_as_xyz
1 x,y,z
_cell_length_a                   9.490517
_cell_length_b                   3.91377
_cell_length_c                   10.361617
_cell_angle_alpha                90.0
_cell_angle_beta                 90.0
_cell_angle_gamma                90.0
loop_
_atom_site_label
_atom_site_type_symbol
_atom_site_fract_x
_atom_site_fract_y
_atom_site_fract_z
     1  N          0.30865110       0.58983000       0.43203100
     2  N          0.19134890       0.41017000       0.43203100
     3  N          0.69134890       0.58983000       0.06796900
     4  N          0.80865110       0.41017000       0.06796900
     5  N          0.69134890       0.41017000       0.56796900
     6  N          0.80865110       0.58983000       0.56796900
     7  N          0.30865110       0.41017000       0.93203100
     8  N          0.19134890       0.58983000       0.93203100
     9  N          0.34458120       0.64523000       0.55324110
    10  N          0.15541880       0.35477000       0.55324110
    11  N          0.65541880       0.64523000       0.94675890
    12  N          0.84458120       0.35477000       0.94675890
    13  N          0.65541880       0.35477000       0.44675890
    14  N          0.84458120       0.64523000       0.44675890
    15  N          0.34458120       0.35477000       0.05324110
    16  N          0.15541880       0.64523000       0.05324110
    17  N          0.25000000       0.50000000       0.62766140
    18  N          0.75000000       0.50000000       0.87233860
    19  N          0.75000000       0.50000000       0.37233860
    20  N          0.25000000       0.50000000       0.12766140
    21  N          0.50000000       0.94444000       0.25000000
    22  N          0.00000000       0.05556000       0.25000000
    23  N          0.50000000       0.05556000       0.75000000
    24  N          0.00000000       0.94444000       0.75000000
    25  H          0.43401700       0.82240000       0.29311500
    26  H          0.06598300       0.17760000       0.29311500
    27  H          0.56598300       0.82240000       0.20688500
    28  H          0.93401700       0.17760000       0.20688500
    29  H          0.56598300       0.17760000       0.70688500
    30  H          0.93401700       0.82240000       0.70688500
    31  H          0.43401700       0.17760000       0.79311500
    32  H          0.06598300       0.82240000       0.79311500
    33  H          0.54321700       0.07440000       0.31201500
    34  H          0.95678300       0.92560000       0.31201500
    35  H          0.45678300       0.07440000       0.18798500
    36  H          0.04321700       0.92560000       0.18798500
    37  H          0.45678300       0.92560000       0.68798500
    38  H          0.04321700       0.07440000       0.68798500
    39  H          0.54321700       0.92560000       0.81201500
    40  H          0.95678300       0.07440000       0.81201500
