data_HIQLOI
_symmetry_space_group_name_H-M    'P1'
_symmetry_Int_Tables_number       1
loop_
_symmetry_equiv_pos_site_id
_symmetry_equiv_pos_as_xyz
1 x,y,z
_cell_length_a                   3.93218
_cell_length_b                   10.8862
_cell_length_c                   8.30009
_cell_angle_alpha                90.0
_cell_angle_beta                 103.601
_cell_angle_gamma                90.0
loop_
_atom_site_label
_atom_site_type_symbol
_atom_site_fract_x
_atom_site_fract_y
_atom_site_fract_z
     1  S          0.31861000       0.82077700       0.91892400
     2  S          0.68139000       0.32077700       0.58107600
     3  S          0.68139000       0.17922300       0.08107600
     4  S          0.31861000       0.67922300       0.41892400
     5  S          0.79361000       0.92947700       0.23046400
     6  S          0.20639000       0.42947700       0.26953600
     7  S          0.20639000       0.07052300       0.76953600
     8  S          0.79361000       0.57052300       0.73046400
     9  O          0.88946000       0.87029000       0.63102000
    10  O          0.11054000       0.37029000       0.86898000
    11  O          0.11054000       0.12971000       0.36898000
    12  O          0.88946000       0.62971000       0.13102000
    13  C          0.52733000       0.94359000       0.03342000
    14  C          0.47267000       0.44359000       0.46658000
    15  C          0.47267000       0.05641000       0.96658000
    16  C          0.52733000       0.55641000       0.53342000
    17  C          0.09544000       0.91219000       0.74922000
    18  C          0.90456000       0.41219000       0.75078000
    19  C          0.90456000       0.08781000       0.25078000
    20  C          0.09544000       0.58781000       0.24922000
