
#######################################################################
#
#                 Cambridge Crystallographic Data Centre
#                                CCDC 
#
#######################################################################
#
# If this CIF has been generated from an entry in the Cambridge 
# Structural Database, then it will include bibliographic, chemical, 
# crystal, experimental, refinement or atomic coordinate data resulting 
# from the CCDC's data processing and validation procedures.
#
#######################################################################

data_HOFGEO
_chemical_formula_moiety         'C5 H4 I1 N1'
_chemical_name_systematic        4-Iodopyridine
_symmetry_cell_setting           orthorhombic
_symmetry_space_group_name_H-M   'F d d 2'
_symmetry_Int_Tables_number      43
_space_group_name_Hall           'F 2 -2d'
loop_
_symmetry_equiv_pos_site_id
_symmetry_equiv_pos_as_xyz
1 x,y,z
2 -x,-y,z
3 1/4+x,1/4-y,1/4+z
4 1/4-x,1/4+y,1/4+z
5 x,1/2+y,1/2+z
6 -x,1/2-y,1/2+z
7 1/4+x,3/4-y,3/4+z
8 1/4-x,3/4+y,3/4+z
9 1/2+x,y,1/2+z
10 1/2-x,-y,1/2+z
11 3/4+x,1/4-y,3/4+z
12 3/4-x,1/4+y,3/4+z
13 1/2+x,1/2+y,z
14 1/2-x,1/2-y,z
15 3/4+x,3/4-y,1/4+z
16 3/4-x,3/4+y,1/4+z
_cell_length_a                   10.390(2)
_cell_length_b                   14.394(3)
_cell_length_c                   7.884(2)
_cell_angle_alpha                90
_cell_angle_beta                 90
_cell_angle_gamma                90
_cell_volume                     1179.08
_exptl_crystal_colour            colorless
_exptl_crystal_description       'square prism'
_cell_formula_units_Z            8
_exptl_crystal_recrystallization_method sublimation
loop_
_atom_site_label
_atom_site_type_symbol
_atom_site_fract_x
_atom_site_fract_y
_atom_site_fract_z
_atom_site_U_iso_or_equiv
_atom_site_thermal_displace_type
I1 I 0.0000 0.0000 0.12364(9) 0.0416 Uani
N1 N 0.0000 0.0000 0.7447(6) 0.0477 Uani
C1 C 0.1016(4) -0.0278(2) 0.6538(4) 0.0465 Uani
H1 H 0.1756 -0.0477 0.7145 0.0560 Uiso
C2 C 0.1078(4) -0.0298(2) 0.4781(4) 0.0395 Uani
H2 H 0.1828 -0.0508 0.4206 0.0470 Uiso
C3 C 0.0000 0.0000 0.3900(6) 0.0323 Uani
C1A C -0.1016(4) 0.0278(2) 0.6538(4) 0.0465 Uani
H1A H -0.1756 0.0477 0.7145 0.0560 Uiso
C2A C -0.1078(4) 0.0298(2) 0.4781(4) 0.0395 Uani
H2A H -0.1828 0.0508 0.4206 0.0470 Uiso
loop_
_atom_site_aniso_label
_atom_site_aniso_U_11
_atom_site_aniso_U_22
_atom_site_aniso_U_33
_atom_site_aniso_U_23
_atom_site_aniso_U_13
_atom_site_aniso_U_12
I1 0.04322(15) 0.05415(15) 0.02734(11) 0.000 0.000 -0.0050(2)
N1 0.061(3) 0.049(2) 0.033(2) 0.000 0.000 -0.010(2)
C1 0.044(2) 0.0525(19) 0.043(2) 0.0093(14) -0.0090(17) -0.0042(16)
C2 0.0374(19) 0.0445(17) 0.0367(17) 0.0031(13) 0.0014(16) 0.0044(16)
C3 0.036(3) 0.038(2) 0.023(2) 0.000 0.000 -0.0018(16)
C1A 0.044 0.0525 0.043 -0.0093 0.009 -0.0042
C2A 0.0374 0.0445 0.0367 -0.0031 -0.0014 0.0044
loop_
_geom_bond_atom_site_label_1
_geom_bond_atom_site_label_2
_geom_bond_site_symmetry_1
_geom_bond_site_symmetry_2
I1 C3 1_555 1_555
N1 C1 1_555 1_555
C1 H1 1_555 1_555
C2 C1 1_555 1_555
H2 C2 1_555 1_555
C3 C2 1_555 1_555
C1A N1 1_555 1_555
H1A C1A 1_555 1_555
C2A C3 1_555 1_555
H2A C2A 1_555 1_555
C1A C2A 1_555 1_555

#END
