data_HUDJOF
_symmetry_space_group_name_H-M    'P1'
_symmetry_Int_Tables_number       1
loop_
_symmetry_equiv_pos_site_id
_symmetry_equiv_pos_as_xyz
1 x,y,z
_cell_length_a                   4.31801
_cell_length_b                   15.0713
_cell_length_c                   14.0513
_cell_angle_alpha                90.0
_cell_angle_beta                 90.0
_cell_angle_gamma                90.0
loop_
_atom_site_label
_atom_site_type_symbol
_atom_site_fract_x
_atom_site_fract_y
_atom_site_fract_z
     1  I          0.10130110       0.57630300       0.14863300
     2  I          0.39869890       0.92369700       0.14863300
     3  I          0.89869890       0.07630300       0.35136700
     4  I          0.60130110       0.42369700       0.35136700
     5  I          0.89869890       0.42369700       0.85136700
     6  I          0.60130110       0.07630300       0.85136700
     7  I          0.10130110       0.92369700       0.64863300
     8  I          0.39869890       0.57630300       0.64863300
     9  C          0.88318300       0.68694000       0.20275000
    10  C          0.61681700       0.81306000       0.20275000
    11  C          0.11681700       0.18694000       0.29725000
    12  C          0.38318300       0.31306000       0.29725000
    13  C          0.11681700       0.31306000       0.79725000
    14  C          0.38318300       0.18694000       0.79725000
    15  C          0.88318300       0.81306000       0.70275000
    16  C          0.61681700       0.68694000       0.70275000
    17  I         -0.01170110       0.64045300       0.41257300
    18  I          0.51170110       0.85954700       0.41257300
    19  I          0.01170110       0.14045300       0.08742700
    20  I          0.48829890       0.35954700       0.08742700
    21  I          0.01170110       0.35954700       0.58742700
    22  I          0.48829890       0.14045300       0.58742700
    23  I         -0.01170110       0.85954700       0.91257300
    24  I          0.51170110       0.64045300       0.91257300
    25  C          0.83228400       0.70944000       0.29594000
    26  C          0.66771600       0.79056000       0.29594000
    27  C          0.16771600       0.20944000       0.20406000
    28  C          0.33228400       0.29056000       0.20406000
    29  C          0.16771600       0.29056000       0.70406000
    30  C          0.33228400       0.20944000       0.70406000
    31  C          0.83228400       0.79056000       0.79594000
    32  C          0.66771600       0.70944000       0.79594000
    33  N          0.75000000       0.75000000       0.14635000
    34  N          0.25000000       0.25000000       0.35365000
    35  N          0.25000000       0.25000000       0.85365000
    36  N          0.75000000       0.75000000       0.64635000
    37  H          0.75000000       0.75000000       0.08375000
    38  H          0.25000000       0.25000000       0.41625000
    39  H          0.25000000       0.25000000       0.91625000
    40  H          0.75000000       0.75000000       0.58375000
