data_HUXFOV
_symmetry_space_group_name_H-M    'P1'
_symmetry_Int_Tables_number       1
loop_
_symmetry_equiv_pos_site_id
_symmetry_equiv_pos_as_xyz
1 x,y,z
_cell_length_a                   6.11747
_cell_length_b                   6.66747
_cell_length_c                   11.314511
_cell_angle_alpha                90.0
_cell_angle_beta                 90.0
_cell_angle_gamma                90.0
loop_
_atom_site_label
_atom_site_type_symbol
_atom_site_fract_x
_atom_site_fract_y
_atom_site_fract_z
     1  C          0.08734000       0.25000000       0.36259180
     2  C          0.41266000       0.75000000       0.86259180
     3  C          0.91266000       0.75000000       0.63740820
     4  C          0.58734000       0.25000000       0.13740820
     5  H          0.14630000       0.36130000       0.32771300
     6  H          0.35370000       0.63870000       0.82771300
     7  H          0.85370000       0.86130000       0.67228700
     8  H          0.64630000       0.13870000       0.17228700
     9  H          0.85370000       0.63870000       0.67228700
    10  H          0.64630000       0.36130000       0.17228700
    11  H          0.14630000       0.13870000       0.32771300
    12  H          0.35370000       0.86130000       0.82771300
    13  H          0.93450000       0.25000000       0.35520000
    14  H          0.56550000       0.75000000       0.85520000
    15  H          0.06550000       0.75000000       0.64480000
    16  H          0.43450000       0.25000000       0.14480000
    17  S          0.14658700       0.25000000       0.51823400
    18  S          0.35341300       0.75000000       0.01823400
    19  S          0.85341300       0.75000000       0.48176600
    20  S          0.64658700       0.25000000       0.98176600
    21  O          0.54422000       0.25000000       0.43059130
    22  O          0.95578000       0.75000000       0.93059130
    23  O          0.45578000       0.75000000       0.56940870
    24  O          0.04422000       0.25000000       0.06940870
    25  C          0.42813000       0.25000000       0.51296160
    26  C          0.07187000       0.75000000       0.01296160
    27  C          0.57187000       0.75000000       0.48703840
    28  C          0.92813000       0.25000000       0.98703840
    29  Cl         0.53760800       0.25000000       0.65930400
    30  Cl         0.96239200       0.75000000       0.15930400
    31  Cl         0.46239200       0.75000000       0.34069600
    32  Cl         0.03760800       0.25000000       0.84069600
