data_HXMTAM
_symmetry_space_group_name_H-M    'P1'
_symmetry_Int_Tables_number       1
loop_
_symmetry_equiv_pos_site_id
_symmetry_equiv_pos_as_xyz
1 x,y,z
_cell_length_a                   7.021
_cell_length_b                   7.021
_cell_length_c                   7.021
_cell_angle_alpha                90.0
_cell_angle_beta                 90.0
_cell_angle_gamma                90.0
loop_
_atom_site_label
_atom_site_type_symbol
_atom_site_fract_x
_atom_site_fract_y
_atom_site_fract_z
     1  C          0.23780000       0.00000000       0.00000000
     2  C          0.73780000       0.50000000       0.50000000
     3  C          0.00000000       0.23780000      -0.00000000
     4  C          0.00000000      -0.00000000       0.23780000
     5  C          0.50000000       0.73780000       0.50000000
     6  C          0.50000000       0.50000000       0.73780000
     7  C          0.76220000       0.00000000       0.00000000
     8  C          0.00000000      -0.00000000       0.76220000
     9  C          0.26220000       0.50000000       0.50000000
    10  C          0.50000000       0.50000000       0.26220000
    11  C          0.00000000       0.76220000      -0.00000000
    12  C          0.50000000       0.26220000       0.50000000
    13  H          0.32750000       0.08850000       0.91150000
    14  H          0.82750000       0.58850000       0.41150000
    15  H          0.91150000       0.32750000       0.08850000
    16  H          0.08850000       0.91150000       0.32750000
    17  H          0.41150000       0.82750000       0.58850000
    18  H          0.58850000       0.41150000       0.82750000
    19  H          0.67250000       0.91150000       0.91150000
    20  H          0.08850000       0.08850000       0.67250000
    21  H          0.17250000       0.41150000       0.41150000
    22  H          0.58850000       0.58850000       0.17250000
    23  H          0.32750000       0.91150000       0.08850000
    24  H          0.82750000       0.41150000       0.58850000
    25  H          0.91150000       0.67250000       0.91150000
    26  H          0.41150000       0.17250000       0.41150000
    27  H          0.67250000       0.08850000       0.08850000
    28  H          0.17250000       0.58850000       0.58850000
    29  H          0.08850000       0.32750000       0.91150000
    30  H          0.91150000       0.91150000       0.67250000
    31  H          0.58850000       0.82750000       0.41150000
    32  H          0.41150000       0.41150000       0.17250000
    33  H          0.91150000       0.08850000       0.32750000
    34  H          0.41150000       0.58850000       0.82750000
    35  H          0.08850000       0.67250000       0.08850000
    36  H          0.58850000       0.17250000       0.58850000
    37  N          0.12320000       0.12320000       0.12320000
    38  N          0.62320000       0.62320000       0.62320000
    39  N          0.87680000       0.12320000       0.87680000
    40  N          0.37680000       0.62320000       0.37680000
    41  N          0.12320000       0.87680000       0.87680000
    42  N          0.62320000       0.37680000       0.37680000
    43  N          0.87680000       0.87680000       0.12320000
    44  N          0.37680000       0.37680000       0.62320000
