data_HYFURN
_symmetry_space_group_name_H-M    'P1'
_symmetry_Int_Tables_number       1
loop_
_symmetry_equiv_pos_site_id
_symmetry_equiv_pos_as_xyz
1 x,y,z
_cell_length_a                   7.292
_cell_length_b                   5.241
_cell_length_c                   11.052
_cell_angle_alpha                90.0
_cell_angle_beta                 90.0
_cell_angle_gamma                90.0
loop_
_atom_site_label
_atom_site_type_symbol
_atom_site_fract_x
_atom_site_fract_y
_atom_site_fract_z
     1  O          0.79030000       0.25340000       0.25000000
     2  O          0.20970000       0.74660000       0.75000000
     3  O          0.29030000       0.24660000       0.25000000
     4  O          0.70970000       0.75340000       0.75000000
     5  O          0.51790000       0.77890000       0.11810000
     6  O          0.48210000       0.22110000       0.61810000
     7  O          0.01790000       0.72110000       0.38190000
     8  O         -0.01790000       0.27890000       0.88190000
     9  O          0.48210000       0.22110000       0.88190000
    10  O          0.51790000       0.77890000       0.38190000
    11  O         -0.01790000       0.27890000       0.61810000
    12  O          0.01790000       0.72110000       0.11810000
    13  C          0.59210000       0.93580000       0.18030000
    14  C          0.40790000       0.06420000       0.68030000
    15  C          0.09210000       0.56420000       0.31970000
    16  C          0.90790000       0.43580000       0.81970000
    17  C          0.40790000       0.06420000       0.81970000
    18  C          0.59210000       0.93580000       0.31970000
    19  C          0.90790000       0.43580000       0.68030000
    20  C          0.09210000       0.56420000       0.18030000
    21  C          0.69670000       0.16520000       0.14370000
    22  C          0.30330000       0.83480000       0.64370000
    23  C          0.19670000       0.33480000       0.35630000
    24  C          0.80330000       0.66520000       0.85630000
    25  C          0.30330000       0.83480000       0.85630000
    26  C          0.69670000       0.16520000       0.35630000
    27  C          0.80330000       0.66520000       0.64370000
    28  C          0.19670000       0.33480000       0.14370000
    29  H          0.79850000       0.10940000       0.09180000
    30  H          0.20150000       0.89060000       0.59180000
    31  H          0.29850000       0.39060000       0.40820000
    32  H          0.70150000       0.60940000       0.90820000
    33  H          0.20150000       0.89060000       0.90820000
    34  H          0.79850000       0.10940000       0.40820000
    35  H          0.70150000       0.60940000       0.59180000
    36  H          0.29850000       0.39060000       0.09180000
    37  H          0.61000000       0.26950000       0.11660000
    38  H          0.39000000       0.73050000       0.61660000
    39  H          0.11000000       0.23050000       0.38340000
    40  H          0.89000000       0.76950000       0.88340000
    41  H          0.39000000       0.73050000       0.88340000
    42  H          0.61000000       0.26950000       0.38340000
    43  H          0.89000000       0.76950000       0.61660000
    44  H          0.11000000       0.23050000       0.11660000
