data_ICEANE
_symmetry_space_group_name_H-M    'P1'
_symmetry_Int_Tables_number       1
loop_
_symmetry_equiv_pos_site_id
_symmetry_equiv_pos_as_xyz
1 x,y,z
_cell_length_a                   6.5821
_cell_length_b                   6.5821
_cell_length_c                   11.8433
_cell_angle_alpha                90.0
_cell_angle_beta                 90.0
_cell_angle_gamma                120.0
loop_
_atom_site_label
_atom_site_type_symbol
_atom_site_fract_x
_atom_site_fract_y
_atom_site_fract_z
     1  C          0.24560000       0.42010000       0.13920000
     2  C          0.57990000       0.82550000       0.13920000
     3  C          0.17450000       0.75440000       0.13920000
     4  C          0.75440000       0.57990000       0.63920000
     5  C          0.42010000       0.17450000       0.63920000
     6  C          0.82550000       0.24560000       0.63920000
     7  C          0.75440000       0.57990000       0.86080000
     8  C          0.42010000       0.17450000       0.86080000
     9  C          0.82550000       0.24560000       0.86080000
    10  C          0.24560000       0.42010000       0.36080000
    11  C          0.57990000       0.82550000       0.36080000
    12  C          0.17450000       0.75440000       0.36080000
    13  C          0.08650000       0.50770000       0.18450000
    14  C          0.49230000       0.57880000       0.18450000
    15  C          0.42120000       0.91350000       0.18450000
    16  C          0.91350000       0.49230000       0.68450000
    17  C          0.50770000       0.42120000       0.68450000
    18  C          0.57880000       0.08650000       0.68450000
    19  C          0.91350000       0.49230000       0.81550000
    20  C          0.50770000       0.42120000       0.81550000
    21  C          0.57880000       0.08650000       0.81550000
    22  C          0.08650000       0.50770000       0.31550000
    23  C          0.49230000       0.57880000       0.31550000
    24  C          0.42120000       0.91350000       0.31550000
    25  H          0.25600000       0.43500000       0.05800000
    26  H          0.56500000       0.82100000       0.05800000
    27  H          0.17900000       0.74400000       0.05800000
    28  H          0.74400000       0.56500000       0.55800000
    29  H          0.43500000       0.17900000       0.55800000
    30  H          0.82100000       0.25600000       0.55800000
    31  H          0.74400000       0.56500000       0.94200000
    32  H          0.43500000       0.17900000       0.94200000
    33  H          0.82100000       0.25600000       0.94200000
    34  H          0.25600000       0.43500000       0.44200000
    35  H          0.56500000       0.82100000       0.44200000
    36  H          0.17900000       0.74400000       0.44200000
    37  H          0.18500000       0.26100000       0.16600000
    38  H          0.73900000       0.92400000       0.16600000
    39  H          0.07600000       0.81500000       0.16600000
    40  H          0.81500000       0.73900000       0.66600000
    41  H          0.26100000       0.07600000       0.66600000
    42  H          0.92400000       0.18500000       0.66600000
    43  H          0.81500000       0.73900000       0.83400000
    44  H          0.26100000       0.07600000       0.83400000
    45  H          0.92400000       0.18500000       0.83400000
    46  H          0.18500000       0.26100000       0.33400000
    47  H          0.73900000       0.92400000       0.33400000
    48  H          0.07600000       0.81500000       0.33400000
    49  H          0.93400000       0.41000000       0.15900000
    50  H          0.59000000       0.52400000       0.15900000
    51  H          0.47600000       0.06600000       0.15900000
    52  H          0.06600000       0.59000000       0.65900000
    53  H          0.41000000       0.47600000       0.65900000
    54  H          0.52400000       0.93400000       0.65900000
    55  H          0.06600000       0.59000000       0.84100000
    56  H          0.41000000       0.47600000       0.84100000
    57  H          0.52400000       0.93400000       0.84100000
    58  H          0.93400000       0.41000000       0.34100000
    59  H          0.59000000       0.52400000       0.34100000
    60  H          0.47600000       0.06600000       0.34100000
