data_ICEXOH
_symmetry_space_group_name_H-M    'P1'
_symmetry_Int_Tables_number       1
loop_
_symmetry_equiv_pos_site_id
_symmetry_equiv_pos_as_xyz
1 x,y,z
_cell_length_a                   7.55123
_cell_length_b                   7.55123
_cell_length_c                   9.35758
_cell_angle_alpha                90.0
_cell_angle_beta                 90.0
_cell_angle_gamma                120.0
loop_
_atom_site_label
_atom_site_type_symbol
_atom_site_fract_x
_atom_site_fract_y
_atom_site_fract_z
     1  S         -0.00000000      -0.00000000       0.56043110
     2  S          0.66666667       0.33333333       0.89376443
     3  S          0.33333333       0.66666667       0.22709777
     4  F         -0.00000000      -0.00000000       0.39237000
     5  F          0.66666667       0.33333333       0.72570333
     6  F          0.33333333       0.66666667       0.05903667
     7  O          0.89377000       0.10623000       0.59546000
     8  O          0.89377000       0.78754000       0.59546000
     9  O          0.21246000       0.10623000       0.59546000
    10  O          0.56043667       0.43956333       0.92879333
    11  O          0.56043667       0.12087333       0.92879333
    12  O          0.87912667       0.43956333       0.92879333
    13  O          0.22710333       0.77289667       0.26212667
    14  O          0.22710333       0.45420667       0.26212667
    15  O          0.54579333       0.77289667       0.26212667
    16  C         -0.00000000      -0.00000000       0.95029000
    17  C          0.66666667       0.33333333       0.28362333
    18  C          0.33333333       0.66666667       0.61695667
    19  N          0.79773000       0.89887000       0.95027000
    20  N          0.10113000       0.89886000       0.95027000
    21  N          0.10114000       0.20227000       0.95027000
    22  N          0.46439667       0.23220333       0.28360333
    23  N          0.76779667       0.23219333       0.28360333
    24  N          0.76780667       0.53560333       0.28360333
    25  N          0.13106333       0.56553667       0.61693667
    26  N          0.43446333       0.56552667       0.61693667
    27  N          0.43447333       0.86893667       0.61693667
    28  H          0.73090000       0.76540000       0.95360000
    29  H          0.23460000       0.96550000       0.95360000
    30  H          0.03450000       0.26910000       0.95360000
    31  H          0.23460000       0.26910000       0.95360000
    32  H          0.03450000       0.76540000       0.95360000
    33  H          0.73090000       0.96550000       0.95360000
    34  H          0.39756667       0.09873333       0.28693333
    35  H          0.90126667       0.29883333       0.28693333
    36  H          0.70116667       0.60243333       0.28693333
    37  H          0.90126667       0.60243333       0.28693333
    38  H          0.70116667       0.09873333       0.28693333
    39  H          0.39756667       0.29883333       0.28693333
    40  H          0.06423333       0.43206667       0.62026667
    41  H          0.56793333       0.63216667       0.62026667
    42  H          0.36783333       0.93576667       0.62026667
    43  H          0.56793333       0.93576667       0.62026667
    44  H          0.36783333       0.43206667       0.62026667
    45  H          0.06423333       0.63216667       0.62026667
