data_IFIDIO
_symmetry_space_group_name_H-M    'P1'
_symmetry_Int_Tables_number       1
loop_
_symmetry_equiv_pos_site_id
_symmetry_equiv_pos_as_xyz
1 x,y,z
_cell_length_a                   13.891715
_cell_length_b                   6.26375
_cell_length_c                   3.72163
_cell_angle_alpha                90.0
_cell_angle_beta                 90.0
_cell_angle_gamma                90.0
loop_
_atom_site_label
_atom_site_type_symbol
_atom_site_fract_x
_atom_site_fract_y
_atom_site_fract_z
     1  O          0.30810110       0.75000000       0.00004000
     2  O          0.19189890       0.25000000       0.50004000
     3  O          0.69189890       0.25000000      -0.00004000
     4  O          0.80810110       0.75000000       0.49996000
     5  C          0.36602100       0.58092000       0.83825000
     6  C          0.13397900       0.41908000       0.33825000
     7  C          0.63397900       0.08092000       0.16175000
     8  C          0.86602100       0.91908000       0.66175000
     9  C          0.63397900       0.41908000       0.16175000
    10  C          0.86602100       0.58092000       0.66175000
    11  C          0.36602100       0.91908000       0.83825000
    12  C          0.13397900       0.08092000       0.33825000
    13  C          0.43043140       0.75000000       0.67396000
    14  C          0.06956860       0.25000000       0.17396000
    15  C          0.56956860       0.25000000       0.32604000
    16  C          0.93043140       0.75000000       0.82604000
    17  O          0.50293100       0.75000000       0.49994000
    18  O         -0.00293100       0.25000000      -0.00006000
    19  O          0.49706900       0.25000000       0.50006000
    20  O          0.00293100       0.75000000       0.00006000
    21  H          0.39631200       0.49330000       0.02140000
    22  H          0.10368800       0.50670000       0.52140000
    23  H          0.60368800      -0.00670000      -0.02140000
    24  H          0.89631200       0.00670000       0.47860000
    25  H          0.60368800       0.50670000      -0.02140000
    26  H          0.89631200       0.49330000       0.47860000
    27  H          0.39631200       0.00670000       0.02140000
    28  H          0.10368800      -0.00670000       0.52140000
    29  H          0.33001100       0.49520000       0.66750000
    30  H          0.16998900       0.50480000       0.16750000
    31  H          0.66998900      -0.00480000       0.33250000
    32  H          0.83001100       0.00480000       0.83250000
    33  H          0.66998900       0.50480000       0.33250000
    34  H          0.83001100       0.49520000       0.83250000
    35  H          0.33001100       0.00480000       0.66750000
    36  H          0.16998900      -0.00480000       0.16750000
