data_IFORAM
_symmetry_space_group_name_H-M    'P1'
_symmetry_Int_Tables_number       1
loop_
_symmetry_equiv_pos_site_id
_symmetry_equiv_pos_as_xyz
1 x,y,z
_cell_length_a                   10.7583
_cell_length_b                   7.0752
_cell_length_c                   6.6712
_cell_angle_alpha                90.0
_cell_angle_beta                 90.0
_cell_angle_gamma                90.0
loop_
_atom_site_label
_atom_site_type_symbol
_atom_site_fract_x
_atom_site_fract_y
_atom_site_fract_z
     1  C          0.92100000       0.23420000       0.53920000
     2  C          0.57900000       0.73420000       0.03920000
     3  C          0.42100000       0.23420000       0.96080000
     4  C          0.07900000       0.73420000       0.46080000
     5  H          0.84500000       0.23900000       0.45500000
     6  H          0.65500000       0.73900000       0.95500000
     7  H          0.34500000       0.23900000       0.04500000
     8  H          0.15500000       0.73900000       0.54500000
     9  I          0.03638000       0.25000000       0.14045000
    10  I          0.46362000       0.75000000       0.64045000
    11  I          0.53638000       0.25000000       0.35955000
    12  I          0.96362000       0.75000000       0.85955000
    13  I          0.19619000       0.24720000       0.60835000
    14  I          0.30381000       0.74720000       0.10835000
    15  I          0.69619000       0.24720000       0.89165000
    16  I          0.80381000       0.74720000       0.39165000
    17  N          0.02970000       0.22660000       0.44530000
    18  N          0.47030000       0.72660000       0.94530000
    19  N          0.52970000       0.22660000       0.05470000
    20  N          0.97030000       0.72660000       0.55470000
    21  O          0.90890000       0.22560000       0.71960000
    22  O          0.59110000       0.72560000       0.21960000
    23  O          0.40890000       0.22560000       0.78040000
    24  O          0.09110000       0.72560000       0.28040000
