data_IFULUQ04
_symmetry_space_group_name_H-M    'P1'
_symmetry_Int_Tables_number       1
loop_
_symmetry_equiv_pos_site_id
_symmetry_equiv_pos_as_xyz
1 x,y,z
_cell_length_a                   12.141215
_cell_length_b                   8.701615
_cell_length_c                   8.3142
_cell_angle_alpha                90.0
_cell_angle_beta                 90.002
_cell_angle_gamma                90.0
loop_
_atom_site_label
_atom_site_type_symbol
_atom_site_fract_x
_atom_site_fract_y
_atom_site_fract_z
     1  Cl         0.10761700       0.61771110       0.08208100
     2  Cl         0.60761700       0.11771110       0.08208100
     3  Cl         0.89238300       0.61771110       0.41791900
     4  Cl         0.39238300       0.11771110       0.41791900
     5  Cl         0.89238300       0.38228890       0.91791900
     6  Cl         0.39238300       0.88228890       0.91791900
     7  Cl         0.10761700       0.38228890       0.58208100
     8  Cl         0.60761700       0.88228890       0.58208100
     9  C          0.11783000       0.74294000       0.92366000
    10  C          0.61783000       0.24294000       0.92366000
    11  C          0.88217000       0.74294000       0.57634000
    12  C          0.38217000       0.24294000       0.57634000
    13  C          0.88217000       0.25706000       0.07634000
    14  C          0.38217000       0.75706000       0.07634000
    15  C          0.11783000       0.25706000       0.42366000
    16  C          0.61783000       0.75706000       0.42366000
    17  N          0.14103000       0.68543000       0.78076000
    18  N          0.64103000       0.18543000       0.78076000
    19  N          0.85897000       0.68543000       0.71924000
    20  N          0.35897000       0.18543000       0.71924000
    21  N          0.85897000       0.31457000       0.21924000
    22  N          0.35897000       0.81457000       0.21924000
    23  N          0.14103000       0.31457000       0.28076000
    24  N          0.64103000       0.81457000       0.28076000
    25  S          0.15022800       0.81979110       0.64116900
    26  S          0.65022800       0.31979110       0.64116900
    27  S          0.84977200       0.81979110       0.85883100
    28  S          0.34977200       0.31979110       0.85883100
    29  S          0.84977200       0.18020890       0.35883100
    30  S          0.34977200       0.68020890       0.35883100
    31  S          0.15022800       0.18020890       0.14116900
    32  S          0.65022800       0.68020890       0.14116900
    33  S          0.11078700       0.00021900       0.79579900
    34  S          0.61078700       0.50021900       0.79579900
    35  S          0.88921300       0.00021900       0.70420100
    36  S          0.38921300       0.50021900       0.70420100
    37  S          0.88921300      -0.00021900       0.20420100
    38  S          0.38921300       0.49978100       0.20420100
    39  S          0.11078700      -0.00021900       0.29579900
    40  S          0.61078700       0.49978100       0.29579900
    41  N          0.10122000       0.89203000       0.95517000
    42  N          0.60122000       0.39203000       0.95517000
    43  N          0.89878000       0.89203000       0.54483000
    44  N          0.39878000       0.39203000       0.54483000
    45  N          0.89878000       0.10797000       0.04483000
    46  N          0.39878000       0.60797000       0.04483000
    47  N          0.10122000       0.10797000       0.45517000
    48  N          0.60122000       0.60797000       0.45517000
