
#######################################################################
#
#                 Cambridge Crystallographic Data Centre
#                                CCDC 
#
#######################################################################
#
# If this CIF has been generated from an entry in the Cambridge 
# Structural Database, then it will include bibliographic, chemical, 
# crystal, experimental, refinement or atomic coordinate data resulting 
# from the CCDC's data processing and validation procedures.
#
#######################################################################

data_IGIKIW
_chemical_formula_moiety         'C4 H2 N6 S2'
_chemical_name_systematic        5,5'-diazenediylbis(1,2,4-thiadiazole)
_symmetry_cell_setting           monoclinic
_symmetry_space_group_name_H-M   'P 21/n'
_symmetry_Int_Tables_number      14
_space_group_name_Hall           '-P 2yn'
loop_
_symmetry_equiv_pos_site_id
_symmetry_equiv_pos_as_xyz
1 x,y,z
2 1/2-x,1/2+y,1/2-z
3 -x,-y,-z
4 1/2+x,1/2-y,1/2+z
_cell_length_a                   3.7758(4)
_cell_length_b                   18.2803(16)
_cell_length_c                   5.4893(7)
_cell_angle_alpha                90
_cell_angle_beta                 109.377(13)
_cell_angle_gamma                90
_cell_volume                     357.425
_exptl_crystal_colour            orange
_exptl_crystal_description       block
_cell_formula_units_Z            2
loop_
_atom_site_label
_atom_site_type_symbol
_atom_site_fract_x
_atom_site_fract_y
_atom_site_fract_z
_atom_site_U_iso_or_equiv
_atom_site_thermal_displace_type
S1 S 0.72771(12) 0.59478(2) 0.08308(9) 0.0142 Uani
N1 N 0.6590(4) 0.64023(9) 0.5041(3) 0.0154 Uani
N2 N 0.9298(4) 0.52254(8) 0.5584(3) 0.0142 Uani
N3 N 0.5498(5) 0.67746(8) 0.0804(3) 0.0163 Uani
C1 C 0.7791(5) 0.58395(11) 0.4053(3) 0.0126 Uani
C2 C 0.5353(5) 0.69123(10) 0.3127(4) 0.0158 Uani
H1 H 0.438900 0.736644 0.346907 0.0190 Uiso
S1B S 1.27229(12) 0.40522(2) 0.91692(9) 0.0142 Uani
N1B N 1.3410(4) 0.35977(9) 0.4959(3) 0.0154 Uani
N2B N 1.0702(4) 0.47746(8) 0.4416(3) 0.0142 Uani
N3B N 1.4502(5) 0.32254(8) 0.9196(3) 0.0163 Uani
C1B C 1.2209(5) 0.41605(11) 0.5947(3) 0.0126 Uani
C2B C 1.4647(5) 0.30877(10) 0.6873(4) 0.0158 Uani
H1B H 1.561100 0.263356 0.653093 0.0190 Uiso
loop_
_atom_site_aniso_label
_atom_site_aniso_U_11
_atom_site_aniso_U_22
_atom_site_aniso_U_33
_atom_site_aniso_U_23
_atom_site_aniso_U_13
_atom_site_aniso_U_12
S1 0.0175(3) 0.0143(3) 0.0121(3) 0.00089(16) 0.0065(2) 0.00160(16)
N1 0.0157(8) 0.0153(8) 0.0150(9) -0.0019(6) 0.0050(6) 0.0002(6)
N2 0.0146(8) 0.0150(8) 0.0136(8) -0.0002(6) 0.0053(6) 0.0003(6)
N3 0.0169(8) 0.0139(8) 0.0188(9) 0.0004(6) 0.0067(7) 0.0005(6)
C1 0.0120(9) 0.0165(9) 0.0093(10) -0.0008(6) 0.0036(7) -0.0020(6)
C2 0.0142(9) 0.0143(9) 0.0183(11) -0.0019(7) 0.0047(7) -0.0003(7)
S1B 0.0175 0.0143 0.0121 0.00089 0.0065 0.0016
N1B 0.0157 0.0153 0.015 -0.0019 0.005 0.0002
N2B 0.0146 0.015 0.0136 -0.0002 0.0053 0.0003
N3B 0.0169 0.0139 0.0188 0.0004 0.0067 0.0005
C1B 0.012 0.0165 0.0093 -0.0008 0.0036 -0.002
C2B 0.0142 0.0143 0.0183 -0.0019 0.0047 -0.0003
loop_
_geom_bond_atom_site_label_1
_geom_bond_atom_site_label_2
_geom_bond_site_symmetry_1
_geom_bond_site_symmetry_2
S1 N3 1_555 1_555
N1 C1 1_555 1_555
N2 C1 1_555 1_555
N3 C2 1_555 1_555
C1 S1 1_555 1_555
C2 N1 1_555 1_555
H1 C2 1_555 1_555
S1B N3B 1_555 1_555
N1B C1B 1_555 1_555
N2B N2 1_555 1_555
N3B C2B 1_555 1_555
C1B S1B 1_555 1_555
C2B N1B 1_555 1_555
H1B C2B 1_555 1_555
N2B C1B 1_555 1_555

#END
