data_IJAKUD
_symmetry_space_group_name_H-M    'P1'
_symmetry_Int_Tables_number       1
loop_
_symmetry_equiv_pos_site_id
_symmetry_equiv_pos_as_xyz
1 x,y,z
_cell_length_a                   3.916113
_cell_length_b                   9.1743
_cell_length_c                   10.241112
_cell_angle_alpha                90.0
_cell_angle_beta                 98.872
_cell_angle_gamma                90.0
loop_
_atom_site_label
_atom_site_type_symbol
_atom_site_fract_x
_atom_site_fract_y
_atom_site_fract_z
     1  C          0.39751200       0.48205000       0.19424000
     2  C          0.60248800       0.48205000       0.30576000
     3  C          0.89751200       0.98205000       0.19424000
     4  C          0.10248800       0.98205000       0.30576000
     5  C          0.60248800       0.51795000       0.80576000
     6  C          0.39751200       0.51795000       0.69424000
     7  C          0.10248800       0.01795000       0.80576000
     8  C          0.89751200       0.01795000       0.69424000
     9  H          0.33618700       0.39099900       0.15785700
    10  H          0.66381300       0.39099900       0.34214300
    11  H          0.83618700       0.89099900       0.15785700
    12  H          0.16381300       0.89099900       0.34214300
    13  H          0.66381300       0.60900100       0.84214300
    14  H          0.33618700       0.60900100       0.65785700
    15  H          0.16381300       0.10900100       0.84214300
    16  H          0.83618700       0.10900100       0.65785700
    17  C          0.24641200       0.61145000       0.11634000
    18  C          0.75358800       0.61145000       0.38366000
    19  C          0.74641200       0.11145000       0.11634000
    20  C          0.25358800       0.11145000       0.38366000
    21  C          0.75358800       0.38855000       0.88366000
    22  C          0.24641200       0.38855000       0.61634000
    23  C          0.25358800       0.88855000       0.88366000
    24  C          0.74641200       0.88855000       0.61634000
    25  H          0.29212900       0.60386400       0.02708400
    26  H          0.70787100       0.60386400       0.47291600
    27  H          0.79212900       0.10386400       0.02708400
    28  H          0.20787100       0.10386400       0.47291600
    29  H          0.70787100       0.39613600       0.97291600
    30  H          0.29212900       0.39613600       0.52708400
    31  H          0.20787100       0.89613600       0.97291600
    32  H          0.79212900       0.89613600       0.52708400
    33  H          0.34917400       0.69900700       0.15576500
    34  H          0.65082600       0.69900700       0.34423500
    35  H          0.84917400       0.19900700       0.15576500
    36  H          0.15082600       0.19900700       0.34423500
    37  H          0.65082600       0.30099300       0.84423500
    38  H          0.34917400       0.30099300       0.65576500
    39  H          0.15082600       0.80099300       0.84423500
    40  H          0.84917400       0.80099300       0.65576500
    41  H          0.00129300       0.61405200       0.11612000
    42  H         -0.00129300       0.61405200       0.38388000
    43  H          0.50129300       0.11405200       0.11612000
    44  H          0.49870700       0.11405200       0.38388000
    45  H         -0.00129300       0.38594800       0.88388000
    46  H          0.00129300       0.38594800       0.61612000
    47  H          0.49870700       0.88594800       0.88388000
    48  H          0.50129300       0.88594800       0.61612000
