data_IJALOY
_symmetry_space_group_name_H-M    'P1'
_symmetry_Int_Tables_number       1
loop_
_symmetry_equiv_pos_site_id
_symmetry_equiv_pos_as_xyz
1 x,y,z
_cell_length_a                   5.1506
_cell_length_b                   5.08334
_cell_length_c                   7.766112
_cell_angle_alpha                90.0
_cell_angle_beta                 104.245
_cell_angle_gamma                90.0
loop_
_atom_site_label
_atom_site_type_symbol
_atom_site_fract_x
_atom_site_fract_y
_atom_site_fract_z
     1  C          0.39330000       0.47659000       0.43555000
     2  C          0.60670000      -0.02341000       0.06445000
     3  C          0.60670000       0.52341000       0.56445000
     4  C          0.39330000       0.02341000       0.93555000
     5  H          0.34871900       0.60016400       0.34474700
     6  H          0.65128100       0.10016400       0.15525300
     7  H          0.65128100       0.39983600       0.65525300
     8  H          0.34871900       0.89983600       0.84474700
     9  C          0.21820000       0.24277000       0.42286000
    10  C          0.78180000       0.74277000       0.07714000
    11  C          0.78180000       0.75723000       0.57714000
    12  C          0.21820000       0.25723000       0.92286000
    13  H          0.23011700       0.13906500       0.32171500
    14  H          0.76988300       0.63906500       0.17828500
    15  H          0.76988300       0.86093500       0.67828500
    16  H          0.23011700       0.36093500       0.82171500
    17  H          0.03604700       0.29839100       0.40967500
    18  H          0.96395300       0.79839100       0.09032500
    19  H          0.96395300       0.70160900       0.59032500
    20  H          0.03604700       0.20160900       0.90967500
    21  H          0.27413700       0.13897800       0.52876600
    22  H          0.72586300       0.63897800       0.97123400
    23  H          0.72586300       0.86102200       0.47123400
    24  H          0.27413700       0.36102200       0.02876600
