data_IKIQAW
_symmetry_space_group_name_H-M    'P1'
_symmetry_Int_Tables_number       1
loop_
_symmetry_equiv_pos_site_id
_symmetry_equiv_pos_as_xyz
1 x,y,z
_cell_length_a                   4.027401
_cell_length_b                   11.54988
_cell_length_c                   9.39117
_cell_angle_alpha                90.0
_cell_angle_beta                 96.7775
_cell_angle_gamma                90.0
loop_
_atom_site_label
_atom_site_type_symbol
_atom_site_fract_x
_atom_site_fract_y
_atom_site_fract_z
     1  Cl         0.68150200       0.44827450       0.85209470
     2  Cl         0.81849800       0.94827450       0.64790530
     3  Cl         0.31849800       0.55172550       0.14790530
     4  Cl         0.18150200       0.05172550       0.35209470
     5  S          0.61825315       0.23900540       0.66324660
     6  S          0.88174685       0.73900540       0.83675340
     7  S          0.38174685       0.76099460       0.33675340
     8  S          0.11825315       0.26099460       0.16324660
     9  N          0.39879110       0.13437300       0.91048400
    10  N          0.10120890       0.63437300       0.58951600
    11  N          0.60120890       0.86562700       0.08951600
    12  N          0.89879110       0.36562700       0.41048400
    13  C          0.48415800       0.38566200       0.69173300
    14  C          0.01584200       0.88566200       0.80826700
    15  C          0.51584200       0.61433800       0.30826700
    16  C         -0.01584200       0.11433800       0.19173300
    17  C          0.48469700       0.17826200       0.80990300
    18  C          0.01530300       0.67826200       0.69009700
    19  C          0.51530300       0.82173800       0.19009700
    20  C         -0.01530300       0.32173800       0.30990300
    21  H          0.55930000       0.43451200       0.60020000
    22  H          0.94070000       0.93451200       0.89980000
    23  H          0.44070000       0.56548800       0.39980000
    24  H          0.05930000       0.06548800       0.10020000
    25  H          0.20970000       0.38767000       0.69579000
    26  H          0.29030000       0.88767000       0.80421000
    27  H          0.79030000       0.61233000       0.30421000
    28  H          0.70970000       0.11233000       0.19579000
