data_IODOFO02
_symmetry_space_group_name_H-M    'P1'
_symmetry_Int_Tables_number       1
loop_
_symmetry_equiv_pos_site_id
_symmetry_equiv_pos_as_xyz
1 x,y,z
_cell_length_a                   6.77171
_cell_length_b                   6.77171
_cell_length_c                   7.36511
_cell_angle_alpha                90.0
_cell_angle_beta                 90.0
_cell_angle_gamma                120.0
loop_
_atom_site_label
_atom_site_type_symbol
_atom_site_fract_x
_atom_site_fract_y
_atom_site_fract_z
     1  I          0.04459200       0.69448200       0.25015000
     2  I          0.30551800       0.35011000       0.25015000
     3  I          0.64989000       0.95540800       0.25015000
     4  I          0.95540800       0.30551800       0.75015000
     5  I          0.69448200       0.64989000       0.75015000
     6  I          0.35011000       0.04459200       0.75015000
     7  C          0.33330000       0.66670000       0.16865000
     8  C          0.66670000       0.33330000       0.66865000
     9  H          0.33330000       0.66670000       0.03290000
    10  H          0.66670000       0.33330000       0.53290000
