data_JABPIL
_symmetry_space_group_name_H-M    'P1'
_symmetry_Int_Tables_number       1
loop_
_symmetry_equiv_pos_site_id
_symmetry_equiv_pos_as_xyz
1 x,y,z
_cell_length_a                   9.1935
_cell_length_b                   9.1935
_cell_length_c                   4.2993
_cell_angle_alpha                90.0
_cell_angle_beta                 90.0
_cell_angle_gamma                90.0
loop_
_atom_site_label
_atom_site_type_symbol
_atom_site_fract_x
_atom_site_fract_y
_atom_site_fract_z
     1  S          0.02580000       0.20730000       0.08680000
     2  S          0.79270000       0.02580000       0.91320000
     3  S          0.97420000       0.79270000       0.08680000
     4  S          0.20730000       0.97420000       0.91320000
     5  S          0.47420000       0.70730000       0.41320000
     6  S          0.70730000       0.52580000       0.58680000
     7  S          0.52580000       0.29270000       0.41320000
     8  S          0.29270000       0.47420000       0.58680000
     9  N          0.12580000       0.11730000       0.83400000
    10  N          0.88270000       0.12580000       0.16600000
    11  N          0.87420000       0.88270000       0.83400000
    12  N          0.11730000       0.87420000       0.16600000
    13  N          0.37420000       0.61730000       0.66600000
    14  N          0.61730000       0.62580000       0.33400000
    15  N          0.62580000       0.38270000       0.66600000
    16  N          0.38270000       0.37420000       0.33400000
    17  F          0.98350000       0.32810000       0.82190000
    18  F          0.67190000       0.98350000       0.17810000
    19  F          0.01650000       0.67190000       0.82190000
    20  F          0.32810000       0.01650000       0.17810000
    21  F          0.51650000       0.82810000       0.67810000
    22  F          0.82810000       0.48350000       0.32190000
    23  F          0.48350000       0.17190000       0.67810000
    24  F          0.17190000       0.51650000       0.32190000
