data_JABRAF
_symmetry_space_group_name_H-M    'P1'
_symmetry_Int_Tables_number       1
loop_
_symmetry_equiv_pos_site_id
_symmetry_equiv_pos_as_xyz
1 x,y,z
_cell_length_a                   5.491
_cell_length_b                   11.142
_cell_length_c                   6.051
_cell_angle_alpha                90.0
_cell_angle_beta                 98.72
_cell_angle_gamma                90.0
loop_
_atom_site_label
_atom_site_type_symbol
_atom_site_fract_x
_atom_site_fract_y
_atom_site_fract_z
     1  S          0.95500000       0.12260000       0.77660000
     2  S          0.04500000       0.62260000       0.22340000
     3  S          0.04500000       0.87740000       0.22340000
     4  S          0.95500000       0.37740000       0.77660000
     5  S          0.12310000       0.25000000       0.17440000
     6  S          0.87690000       0.75000000       0.82560000
     7  Cl         0.29680000       0.08030000       0.66180000
     8  Cl         0.70320000       0.58030000       0.33820000
     9  Cl         0.70320000       0.91970000       0.33820000
    10  Cl         0.29680000       0.41970000       0.66180000
    11  Cl         0.50040000       0.25000000       0.16350000
    12  Cl         0.49960000       0.75000000       0.83650000
    13  N          0.02560000       0.12910000       0.04300000
    14  N         -0.02560000       0.62910000       0.95700000
    15  N         -0.02560000       0.87090000       0.95700000
    16  N          0.02560000       0.37090000       0.04300000
    17  N          0.88320000       0.25000000       0.66240000
    18  N          0.11680000       0.75000000       0.33760000
