data_JOGPON
_symmetry_space_group_name_H-M    'P1'
_symmetry_Int_Tables_number       1
loop_
_symmetry_equiv_pos_site_id
_symmetry_equiv_pos_as_xyz
1 x,y,z
_cell_length_a                   7.85006
_cell_length_b                   9.83308
_cell_length_c                   6.75406
_cell_angle_alpha                90.0
_cell_angle_beta                 90.2024
_cell_angle_gamma                90.0
loop_
_atom_site_label
_atom_site_type_symbol
_atom_site_fract_x
_atom_site_fract_y
_atom_site_fract_z
     1  Br         0.40138300       0.78605300       0.77786400
     2  Br         0.59861700       0.78605300       0.22213600
     3  Br         0.90138300       0.28605300       0.77786400
     4  Br         0.09861700       0.28605300       0.22213600
     5  Br         0.59861700       0.21394700       0.22213600
     6  Br         0.40138300       0.21394700       0.77786400
     7  Br         0.09861700       0.71394700       0.22213600
     8  Br         0.90138300       0.71394700       0.77786400
     9  N          0.25535000       0.50000000       0.48575000
    10  N          0.74465000       0.50000000       0.51425000
    11  N          0.75535000       0.00000000       0.48575000
    12  N          0.24465000       0.00000000       0.51425000
    13  C          0.32605000       0.50000000       0.63336000
    14  C          0.67395000       0.50000000       0.36664000
    15  C          0.82605000       0.00000000       0.63336000
    16  C          0.17395000       0.00000000       0.36664000
    17  C          0.41585000       0.50000000       0.82096000
    18  C          0.58415000       0.50000000       0.17904000
    19  C          0.91585000       0.00000000       0.82096000
    20  C          0.08415000       0.00000000       0.17904000
    21  C          0.45763000       0.62373000       0.90904000
    22  C          0.54237000       0.62373000       0.09096000
    23  C          0.95763000       0.12373000       0.90904000
    24  C          0.04237000       0.12373000       0.09096000
    25  C          0.54237000       0.37627000       0.09096000
    26  C          0.45763000       0.37627000       0.90904000
    27  C          0.04237000       0.87627000       0.09096000
    28  C          0.95763000       0.87627000       0.90904000
