data_JOJTIL
_symmetry_space_group_name_H-M    'P1'
_symmetry_Int_Tables_number       1
loop_
_symmetry_equiv_pos_site_id
_symmetry_equiv_pos_as_xyz
1 x,y,z
_cell_length_a                   7.6991
_cell_length_b                   6.7061
_cell_length_c                   10.5982
_cell_angle_alpha                90.0
_cell_angle_beta                 90.0
_cell_angle_gamma                90.0
loop_
_atom_site_label
_atom_site_type_symbol
_atom_site_fract_x
_atom_site_fract_y
_atom_site_fract_z
     1  Cl         0.11161000       0.07851000       0.22530000
     2  Cl         0.38839000       0.92149000       0.72530000
     3  Cl         0.61161000       0.42149000       0.77470000
     4  Cl         0.88839000       0.57851000       0.27470000
     5  Cl         0.88839000       0.92149000       0.77470000
     6  Cl         0.61161000       0.07851000       0.27470000
     7  Cl         0.38839000       0.57851000       0.22530000
     8  Cl         0.11161000       0.42149000       0.72530000
     9  N          0.01732000      -0.01282000       0.09331000
    10  N          0.48268000       0.01282000       0.59331000
    11  N          0.51732000       0.51282000       0.90669000
    12  N         -0.01732000       0.48718000       0.40669000
    13  N         -0.01732000       0.01282000       0.90669000
    14  N          0.51732000      -0.01282000       0.40669000
    15  N          0.48268000       0.48718000       0.09331000
    16  N          0.01732000       0.51282000       0.59331000
    17  C          0.10402000       0.91168000       0.98489000
    18  C          0.39598000       0.08832000       0.48489000
    19  C          0.60402000       0.58832000       0.01511000
    20  C          0.89598000       0.41168000       0.51511000
    21  C          0.89598000       0.08832000       0.01511000
    22  C          0.60402000       0.91168000       0.51511000
    23  C          0.39598000       0.41168000       0.98489000
    24  C          0.10402000       0.58832000       0.48489000
    25  O          0.22482000       0.80918000       0.96659000
    26  O          0.27518000       0.19082000       0.46659000
    27  O          0.72482000       0.69082000       0.03341000
    28  O          0.77518000       0.30918000       0.53341000
    29  O          0.77518000       0.19082000       0.03341000
    30  O          0.72482000       0.80918000       0.53341000
    31  O          0.27518000       0.30918000       0.96659000
    32  O          0.22482000       0.69082000       0.46659000
