data_JOYQUJ
_symmetry_space_group_name_H-M    'P1'
_symmetry_Int_Tables_number       1
loop_
_symmetry_equiv_pos_site_id
_symmetry_equiv_pos_as_xyz
1 x,y,z
_cell_length_a                   5.971
_cell_length_b                   4.81
_cell_length_c                   13.209
_cell_angle_alpha                90.0
_cell_angle_beta                 101.193
_cell_angle_gamma                90.0
loop_
_atom_site_label
_atom_site_type_symbol
_atom_site_fract_x
_atom_site_fract_y
_atom_site_fract_z
     1  Br         0.25641000       0.10521000       0.85721600
     2  Br         0.24359000       0.60521000       0.64278400
     3  Br         0.74359000       0.89479000       0.14278400
     4  Br         0.75641000       0.39479000       0.35721600
     5  C          0.10828000       0.33310000       0.94027000
     6  C          0.39172000       0.83310000       0.55973000
     7  C          0.89172000       0.66690000       0.05973000
     8  C          0.60828000       0.16690000       0.44027000
     9  C          0.91673000       0.48310000       0.89377000
    10  C          0.58327000      -0.01690000       0.60623000
    11  C          0.08327000       0.51690000       0.10623000
    12  C          0.41673000       0.01690000       0.39377000
    13  O          0.83933000       0.45748000       0.78937000
    14  O          0.66067000       0.95748000       0.71063000
    15  O          0.16067000       0.54252000       0.21063000
    16  O          0.33933000       0.04252000       0.28937000
    17  C          0.19168000       0.35010000       0.04564000
    18  C          0.30832000       0.85010000       0.45436000
    19  C          0.80832000       0.64990000       0.95436000
    20  C          0.69168000       0.14990000       0.54564000
    21  H          0.32448000       0.25010000       0.07654000
    22  H          0.17552000       0.75010000       0.42346000
    23  H          0.67552000       0.74990000       0.92346000
    24  H          0.82448000       0.24990000       0.57654000
    25  H          0.78313000       0.61728000       0.76237000
    26  H          0.71687000       0.11728000       0.73763000
    27  H          0.21687000       0.38272000       0.23763000
    28  H          0.28313000       0.88272000       0.26237000
