data_KIXQOX
_symmetry_space_group_name_H-M    'P1'
_symmetry_Int_Tables_number       1
loop_
_symmetry_equiv_pos_site_id
_symmetry_equiv_pos_as_xyz
1 x,y,z
_cell_length_a                   8.8982
_cell_length_b                   8.8982
_cell_length_c                   6.9472
_cell_angle_alpha                90.0
_cell_angle_beta                 90.0
_cell_angle_gamma                120.0
loop_
_atom_site_label
_atom_site_type_symbol
_atom_site_fract_x
_atom_site_fract_y
_atom_site_fract_z
     1  S          0.38593130       0.12173120       0.25000000
     2  S          0.87826880       0.26420010       0.25000000
     3  S          0.73579990       0.61406870       0.25000000
     4  S          0.12173120       0.73579990       0.75000000
     5  S          0.26420010       0.38593130       0.75000000
     6  S          0.61406870       0.87826880       0.75000000
     7  N          0.05004000       0.87536000       0.25000000
     8  N          0.12464000       0.17468000       0.25000000
     9  N          0.82532000       0.94996000       0.25000000
    10  N          0.87536000       0.82532000       0.75000000
    11  N          0.17468000       0.05004000       0.75000000
    12  N          0.94996000       0.12464000       0.75000000
    13  C          0.39326000       0.92334000       0.25000000
    14  C          0.07666000       0.46992000       0.25000000
    15  C          0.53008000       0.60674000       0.25000000
    16  C          0.92334000       0.53008000       0.75000000
    17  C          0.46992000       0.39326000       0.75000000
    18  C          0.60674000       0.07666000       0.75000000
    19  C          0.16215000       0.04585000       0.25000000
    20  C          0.95415000       0.11630000       0.25000000
    21  C          0.88370000       0.83785000       0.25000000
    22  C          0.04585000       0.88370000       0.75000000
    23  C          0.11630000       0.16215000       0.75000000
    24  C          0.83785000       0.95415000       0.75000000
    25  H          0.33140000       0.85160000       0.14040000
    26  H          0.14840000       0.47980000       0.14040000
    27  H          0.52020000       0.66860000       0.14040000
    28  H          0.85160000       0.52020000       0.64040000
    29  H          0.47980000       0.33140000       0.64040000
    30  H          0.66860000       0.14840000       0.64040000
    31  H          0.66860000       0.14840000       0.85960000
    32  H          0.85160000       0.52020000       0.85960000
    33  H          0.47980000       0.33140000       0.85960000
    34  H          0.14840000       0.47980000       0.35960000
    35  H          0.52020000       0.66860000       0.35960000
    36  H          0.33140000       0.85160000       0.35960000
    37  H          0.50970000       0.95540000       0.25000000
    38  H          0.04460000       0.55430000       0.25000000
    39  H          0.44570000       0.49030000       0.25000000
    40  H          0.95540000       0.44570000       0.75000000
    41  H          0.55430000       0.50970000       0.75000000
    42  H          0.49030000       0.04460000       0.75000000
