data_LAGMUC
_symmetry_space_group_name_H-M    'P1'
_symmetry_Int_Tables_number       1
loop_
_symmetry_equiv_pos_site_id
_symmetry_equiv_pos_as_xyz
1 x,y,z
_cell_length_a                   7.481014
_cell_length_b                   8.709816
_cell_length_c                   4.05158
_cell_angle_alpha                90.0
_cell_angle_beta                 106.8193
_cell_angle_gamma                90.0
loop_
_atom_site_label
_atom_site_type_symbol
_atom_site_fract_x
_atom_site_fract_y
_atom_site_fract_z
     1  S          0.00001600      -0.00000000       0.00001100
     2  S          0.50001600       0.50000000       0.00001100
     3  S          0.31683500       0.16550300       0.48954600
     4  S          0.31683500       0.83449700       0.48954600
     5  S          0.81683500       0.66550300       0.48954600
     6  S          0.81683500       0.33449700       0.48954600
     7  C          0.20113000      -0.00000000       0.30966000
     8  C          0.70113000       0.50000000       0.30966000
     9  C          0.50762000       0.07688160       0.77144000
    10  C          0.50762000       0.92311840       0.77144000
    11  C          0.00762000       0.57688160       0.77144000
    12  C          0.00762000       0.42311840       0.77144000
    13  H          0.60040000       0.13730000       0.91260000
    14  H          0.60040000       0.86270000       0.91260000
    15  H          0.10040000       0.63730000       0.91260000
    16  H          0.10040000       0.36270000       0.91260000
