data_LAXFUN
_symmetry_space_group_name_H-M    'P1'
_symmetry_Int_Tables_number       1
loop_
_symmetry_equiv_pos_site_id
_symmetry_equiv_pos_as_xyz
1 x,y,z
_cell_length_a                   7.3134
_cell_length_b                   8.2544
_cell_length_c                   6.9224
_cell_angle_alpha                90.0
_cell_angle_beta                 118.0381
_cell_angle_gamma                90.0
loop_
_atom_site_label
_atom_site_type_symbol
_atom_site_fract_x
_atom_site_fract_y
_atom_site_fract_z
     1  F          0.21929190      -0.01455820       0.52732000
     2  F          0.78070810       0.48544180       0.97268000
     3  F          0.78070810       0.01455820       0.47268000
     4  F          0.21929190       0.51455820       0.02732000
     5  F          0.20862000       0.76271180       0.67712000
     6  F          0.79138000       0.26271180       0.82288000
     7  F          0.79138000       0.23728820       0.32288000
     8  F          0.20862000       0.73728820       0.17712000
     9  F          0.84061190       0.93532000       0.08138190
    10  F          0.15938810       0.43532000       0.41861810
    11  F          0.15938810       0.06468000       0.91861810
    12  F          0.84061190       0.56468000       0.58138190
    13  C          0.33313000       0.87363000       0.66763000
    14  C          0.66687000       0.37363000       0.83237000
    15  C          0.66687000       0.12637000       0.33237000
    16  C          0.33313000       0.62637000       0.16763000
    17  C          0.53123000       0.87553000       0.77983000
    18  C          0.46877000       0.37553000       0.72017000
    19  C          0.46877000       0.12447000       0.22017000
    20  C          0.53123000       0.62447000       0.27983000
    21  C          0.73073000       0.87133000       0.88053000
    22  C          0.26927000       0.37133000       0.61947000
    23  C          0.26927000       0.12867000       0.11947000
    24  C          0.73073000       0.62867000       0.38053000
    25  H          0.82630000       0.82730000       0.83430000
    26  H          0.17370000       0.32730000       0.66570000
    27  H          0.17370000       0.17270000       0.16570000
    28  H          0.82630000       0.67270000       0.33430000
