data_LAXFOH
_symmetry_space_group_name_H-M    'P1'
_symmetry_Int_Tables_number       1
loop_
_symmetry_equiv_pos_site_id
_symmetry_equiv_pos_as_xyz
1 x,y,z
_cell_length_a                   7.029714
_cell_length_b                   6.720514
_cell_length_c                   7.824516
_cell_angle_alpha                90.0
_cell_angle_beta                 114.3994
_cell_angle_gamma                90.0
loop_
_atom_site_label
_atom_site_type_symbol
_atom_site_fract_x
_atom_site_fract_y
_atom_site_fract_z
     1  F          0.75762870       0.16530170       0.10712140
     2  F          0.24237130       0.66530170       0.39287860
     3  F          0.24237130       0.83469830       0.89287860
     4  F          0.75762870       0.33469830       0.60712140
     5  F          0.42588160       0.06708180       0.27485170
     6  F          0.57411840       0.56708180       0.22514830
     7  F          0.57411840       0.93291820       0.72514830
     8  F          0.42588160       0.43291820       0.77485170
     9  C          0.10612000       0.22302000       0.18032000
    10  C          0.89388000       0.72302000       0.31968000
    11  C          0.89388000       0.77698000       0.81968000
    12  C          0.10612000       0.27698000       0.68032000
    13  C          0.30222000       0.21193000       0.29162000
    14  C          0.69778000       0.71193000       0.20838000
    15  C          0.69778000       0.78807000       0.70838000
    16  C          0.30222000       0.28807000       0.79162000
    17  C          0.91167000       0.24952000       0.07072000
    18  C          0.08833000       0.74952000       0.42928000
    19  C          0.08833000       0.75048000       0.92928000
    20  C          0.91167000       0.25048000       0.57072000
    21  H          0.85870000       0.32630000       0.95870000
    22  H          0.14130000       0.82630000       0.54130000
    23  H          0.14130000       0.67370000       0.04130000
    24  H          0.85870000       0.17370000       0.45870000
    25  H          0.37630000       0.29630000       0.39330000
    26  H          0.62370000       0.79630000       0.10670000
    27  H          0.62370000       0.70370000       0.60670000
    28  H          0.37630000       0.20370000       0.89330000
