data_LENBOV01
_symmetry_space_group_name_H-M    'P1'
_symmetry_Int_Tables_number       1
loop_
_symmetry_equiv_pos_site_id
_symmetry_equiv_pos_as_xyz
1 x,y,z
_cell_length_a                   6.315013
_cell_length_b                   6.561613
_cell_length_c                   8.692617
_cell_angle_alpha                90.0
_cell_angle_beta                 90.0
_cell_angle_gamma                90.0
loop_
_atom_site_label
_atom_site_type_symbol
_atom_site_fract_x
_atom_site_fract_y
_atom_site_fract_z
     1  I          0.39528700       0.25000000       0.87685600
     2  I          0.10471300       0.75000000       0.37685600
     3  I          0.60471300       0.75000000       0.12314400
     4  I          0.89528700       0.25000000       0.62314400
     5  Cl         0.93867000       0.25000000       0.05018170
     6  Cl         0.56133000       0.75000000       0.55018170
     7  Cl         0.06133000       0.75000000       0.94981830
     8  Cl         0.43867000       0.25000000       0.44981830
     9  C          0.21191100       0.25000000       0.08116000
    10  C          0.28808900       0.75000000       0.58116000
    11  C          0.78808900       0.75000000       0.91884000
    12  C          0.71191100       0.25000000       0.41884000
    13  H          0.25240000       0.38030000       0.14531800
    14  H          0.24760000       0.61970000       0.64531800
    15  H          0.74760000       0.88030000       0.85468200
    16  H          0.75240000       0.11970000       0.35468200
    17  H          0.74760000       0.61970000       0.85468200
    18  H          0.75240000       0.38030000       0.35468200
    19  H          0.25240000       0.11970000       0.14531800
    20  H          0.24760000       0.88030000       0.64531800
