data_LERGUK
_symmetry_space_group_name_H-M    'P1'
_symmetry_Int_Tables_number       1
loop_
_symmetry_equiv_pos_site_id
_symmetry_equiv_pos_as_xyz
1 x,y,z
_cell_length_a                   4.0111
_cell_length_b                   7.1192
_cell_length_c                   14.7234
_cell_angle_alpha                90.0
_cell_angle_beta                 92.401
_cell_angle_gamma                90.0
loop_
_atom_site_label
_atom_site_type_symbol
_atom_site_fract_x
_atom_site_fract_y
_atom_site_fract_z
     1  Br         0.20541000       0.49720000       0.21930000
     2  Br         0.79459000      -0.00280000       0.28070000
     3  Br         0.79459000       0.50280000       0.78070000
     4  Br         0.20541000       0.00280000       0.71930000
     5  C          0.31567000       0.56334000       0.10272000
     6  C          0.68433000       0.06334000       0.39728000
     7  C          0.68433000       0.43666000       0.89728000
     8  C          0.31567000       0.93666000       0.60272000
     9  C          0.21788000       0.74804000       0.06482000
    10  C          0.78212000       0.24804000       0.43518000
    11  C          0.78212000       0.25196000       0.93518000
    12  C          0.21788000       0.75196000       0.56482000
    13  S          0.35792000       0.76891000       0.94950000
    14  S          0.64208000       0.26891000       0.55050000
    15  S          0.64208000       0.23109000       0.05050000
    16  S          0.35792000       0.73109000       0.44950000
    17  C          0.47738000       0.45544000       0.04372000
    18  C          0.52262000       0.95544000       0.45628000
    19  C          0.52262000       0.54456000       0.95628000
    20  C          0.47738000       0.04456000       0.54372000
    21  O          0.06256000       0.86933000       0.10071000
    22  O          0.93744000       0.36933000       0.39929000
    23  O          0.93744000       0.13067000       0.89929000
    24  O          0.06256000       0.63067000       0.60071000
