data_LILLOH
_symmetry_space_group_name_H-M    'P1'
_symmetry_Int_Tables_number       1
loop_
_symmetry_equiv_pos_site_id
_symmetry_equiv_pos_as_xyz
1 x,y,z
_cell_length_a                   6.262
_cell_length_b                   7.428
_cell_length_c                   5.651
_cell_angle_alpha                90.0
_cell_angle_beta                 90.0
_cell_angle_gamma                90.0
loop_
_atom_site_label
_atom_site_type_symbol
_atom_site_fract_x
_atom_site_fract_y
_atom_site_fract_z
     1  Br         0.25000000       0.25000000       0.04454700
     2  Br         0.75000000       0.75000000       0.95545300
     3  N          0.75000000       0.25000000       0.54285000
     4  N          0.25000000       0.75000000       0.45715000
     5  C          0.75000000       0.25000000       0.76637000
     6  C          0.25000000       0.75000000       0.23363000
     7  C          0.75000000       0.08325000       0.40167000
     8  C          0.75000000       0.41675000       0.40167000
     9  C          0.25000000       0.91675000       0.59833000
    10  C          0.25000000       0.58325000       0.59833000
    11  H          0.75000000       0.15690000       0.89014000
    12  H          0.75000000       0.34310000       0.89014000
    13  H          0.25000000       0.84310000       0.10986000
    14  H          0.25000000       0.65690000       0.10986000
    15  H          0.75000000      -0.01312000       0.51115000
    16  H          0.75000000       0.51312000       0.51115000
    17  H          0.25000000       0.01312000       0.48885000
    18  H          0.25000000       0.48688000       0.48885000
    19  H          0.87470000       0.09760000       0.29080000
    20  H          0.62530000       0.40240000       0.29080000
    21  H          0.37470000       0.90240000       0.70920000
    22  H          0.12530000       0.59760000       0.70920000
    23  H          0.12530000       0.90240000       0.70920000
    24  H          0.37470000       0.59760000       0.70920000
    25  H          0.62530000       0.09760000       0.29080000
    26  H          0.87470000       0.40240000       0.29080000
    27  H          0.75000000       0.34490000       0.89014000
    28  H          0.75000000       0.15510000       0.89014000
    29  H          0.25000000       0.65510000       0.10986000
    30  H          0.25000000       0.84490000       0.10986000
