data_LOVWOI
_symmetry_space_group_name_H-M    'P1'
_symmetry_Int_Tables_number       1
loop_
_symmetry_equiv_pos_site_id
_symmetry_equiv_pos_as_xyz
1 x,y,z
_cell_length_a                   7.0923
_cell_length_b                   13.3384
_cell_length_c                   4.15001
_cell_angle_alpha                90.0
_cell_angle_beta                 90.0
_cell_angle_gamma                90.0
loop_
_atom_site_label
_atom_site_type_symbol
_atom_site_fract_x
_atom_site_fract_y
_atom_site_fract_z
     1  F          0.89376880       0.09677700       0.06843000
     2  F          0.39376880       0.59677700       0.06843000
     3  F          0.60623120       0.90322300       0.06843000
     4  F          0.10623120       0.09677700       0.43157000
     5  F          0.39376880       0.90322300       0.43157000
     6  F          0.10623120       0.40322300       0.06843000
     7  F          0.60623120       0.59677700       0.43157000
     8  F          0.89376880       0.40322300       0.43157000
     9  F          0.10623120       0.90322300       0.93157000
    10  F          0.60623120       0.40322300       0.93157000
    11  F          0.39376880       0.09677700       0.93157000
    12  F          0.89376880       0.90322300       0.56843000
    13  F          0.60623120       0.09677700       0.56843000
    14  F          0.89376880       0.59677700       0.93157000
    15  F          0.39376880       0.40322300       0.56843000
    16  F          0.10623120       0.59677700       0.56843000
    17  C          0.00000000       0.15429150       0.25000000
    18  C          0.50000000       0.65429150       0.25000000
    19  C          0.50000000       0.84570850       0.25000000
    20  C         -0.00000000       0.34570850       0.25000000
    21  C         -0.00000000       0.84570850       0.75000000
    22  C          0.50000000       0.34570850       0.75000000
    23  C          0.50000000       0.15429150       0.75000000
    24  C         -0.00000000       0.65429150       0.75000000
    25  C          0.00000000       0.25000000       0.25000000
    26  C          0.50000000       0.75000000       0.25000000
    27  C         -0.00000000       0.75000000       0.75000000
    28  C          0.50000000       0.25000000       0.75000000
