data_LOVWIC
_symmetry_space_group_name_H-M    'P1'
_symmetry_Int_Tables_number       1
loop_
_symmetry_equiv_pos_site_id
_symmetry_equiv_pos_as_xyz
1 x,y,z
_cell_length_a                   6.6225
_cell_length_b                   8.2193
_cell_length_c                   6.71269
_cell_angle_alpha                90.0
_cell_angle_beta                 108.3401
_cell_angle_gamma                90.0
loop_
_atom_site_label
_atom_site_type_symbol
_atom_site_fract_x
_atom_site_fract_y
_atom_site_fract_z
     1  F          0.34267140       0.23354800       0.87695900
     2  F          0.15732860       0.73354800       0.12304100
     3  F          0.65732860       0.76645200       0.12304100
     4  F          0.84267140       0.26645200       0.87695900
     5  F          0.26901130       0.48920900       0.87152100
     6  F          0.23098870      -0.01079100       0.12847900
     7  F          0.73098870       0.51079100       0.12847900
     8  F          0.76901130       0.01079100       0.87152100
     9  C          0.29116120       0.36359900       0.75615110
    10  C          0.20883880       0.86359900       0.24384890
    11  C          0.70883880       0.63640100       0.24384890
    12  C          0.79116120       0.13640100       0.75615110
    13  C          0.26747110       0.36826800       0.55815100
    14  C          0.23252890       0.86826800       0.44184900
    15  C          0.73252890       0.63173200       0.44184900
    16  C          0.76747110       0.13173200       0.55815100
    17  C          0.24608150       0.37532110       0.35906120
    18  C          0.25391850       0.87532110       0.64093880
    19  C          0.75391850       0.62467890       0.64093880
    20  C          0.74608150       0.12467890       0.35906120
    21  H          0.11530000       0.35721600       0.26420000
    22  H          0.38470000       0.85721600       0.73580000
    23  H          0.88470000       0.64278400       0.73580000
    24  H          0.61530000       0.14278400       0.26420000
    25  H          0.36730000       0.39521800       0.31520000
    26  H          0.13270000       0.89521800       0.68480000
    27  H          0.63270000       0.60478200       0.68480000
    28  H          0.86730000       0.10478200       0.31520000
