data_MAGXIF
_symmetry_space_group_name_H-M    'P1'
_symmetry_Int_Tables_number       1
loop_
_symmetry_equiv_pos_site_id
_symmetry_equiv_pos_as_xyz
1 x,y,z
_cell_length_a                   7.00733
_cell_length_b                   7.00733
_cell_length_c                   7.00733
_cell_angle_alpha                90.0
_cell_angle_beta                 90.0
_cell_angle_gamma                90.0
loop_
_atom_site_label
_atom_site_type_symbol
_atom_site_fract_x
_atom_site_fract_y
_atom_site_fract_z
     1  N          0.62303000       0.62303000       0.62303000
     2  N          0.12303000       0.12303000       0.12303000
     3  N          0.62303000       0.37697000       0.37697000
     4  N          0.12303000       0.87697000       0.87697000
     5  N          0.37697000       0.37697000       0.62303000
     6  N          0.87697000       0.87697000       0.12303000
     7  N          0.37697000       0.62303000       0.37697000
     8  N          0.87697000       0.12303000       0.87697000
     9  C          0.73845000       0.50000080       0.50000080
    10  C          0.23845000       0.00000080       0.00000080
    11  C          0.50000080       0.50000080       0.73845000
    12  C          0.00000080       0.00000080       0.23845000
    13  C          0.50000080       0.73845000       0.50000080
    14  C          0.00000080       0.23845000       0.00000080
    15  C          0.50000080       0.26155000       0.49999920
    16  C          0.00000080       0.76155000      -0.00000080
    17  C          0.50000080       0.49999920       0.26155000
    18  C          0.00000080      -0.00000080       0.76155000
    19  C          0.26155000       0.49999920       0.50000080
    20  C          0.76155000      -0.00000080       0.00000080
    21  H          0.81830000       0.57990000       0.42010000
    22  H          0.31830000       0.07990000       0.92010000
    23  H          0.57990000       0.42010000       0.81830000
    24  H          0.07990000       0.92010000       0.31830000
    25  H          0.42010000       0.81830000       0.57990000
    26  H          0.92010000       0.31830000       0.07990000
    27  H          0.57990000       0.18170000       0.57990000
    28  H          0.07990000       0.68170000       0.07990000
    29  H          0.42010000       0.42010000       0.18170000
    30  H          0.92010000       0.92010000       0.68170000
    31  H          0.18170000       0.42010000       0.42010000
    32  H          0.68170000       0.92010000       0.92010000
    33  H          0.57990000       0.81830000       0.42010000
    34  H          0.07990000       0.31830000       0.92010000
    35  H          0.18170000       0.57990000       0.57990000
    36  H          0.68170000       0.07990000       0.07990000
    37  H          0.42010000       0.57990000       0.81830000
    38  H          0.92010000       0.07990000       0.31830000
    39  H          0.57990000       0.57990000       0.18170000
    40  H          0.07990000       0.07990000       0.68170000
    41  H          0.81830000       0.42010000       0.57990000
    42  H          0.31830000       0.92010000       0.07990000
    43  H          0.42010000       0.18170000       0.42010000
    44  H          0.92010000       0.68170000       0.92010000
