data_MALONT03
_symmetry_space_group_name_H-M    'P1'
_symmetry_Int_Tables_number       1
loop_
_symmetry_equiv_pos_site_id
_symmetry_equiv_pos_as_xyz
1 x,y,z
_cell_length_a                   6.0945
_cell_length_b                   7.5606
_cell_length_c                   9.3276
_cell_angle_alpha                90.0
_cell_angle_beta                 124.184
_cell_angle_gamma                90.0
loop_
_atom_site_label
_atom_site_type_symbol
_atom_site_fract_x
_atom_site_fract_y
_atom_site_fract_z
     1  N          0.43877000       0.01435000       0.68713000
     2  N          0.56123000       0.51435000       0.81287000
     3  N          0.56123000      -0.01435000       0.31287000
     4  N          0.43877000       0.48565000       0.18713000
     5  N          0.92274000       0.17134000       0.15703000
     6  N          0.07726000       0.67134000       0.34297000
     7  N          0.07726000       0.82866000       0.84297000
     8  N          0.92274000       0.32866000       0.65703000
     9  C          0.36496000       0.12294000       0.58974000
    10  C          0.63504000       0.62294000       0.91026000
    11  C          0.63504000       0.87706000       0.41026000
    12  C          0.36496000       0.37706000       0.08974000
    13  C          0.27436000       0.26544000       0.46693000
    14  C          0.72564000       0.76544000       0.03307000
    15  C          0.72564000       0.73456000       0.53307000
    16  C          0.27436000       0.23456000       0.96693000
    17  H          0.42380000       0.31290000       0.46890000
    18  H          0.57620000       0.81290000       0.03110000
    19  H          0.57620000       0.68710000       0.53110000
    20  H          0.42380000       0.18710000       0.96890000
    21  H          0.20460000       0.35910000       0.50150000
    22  H          0.79540000       0.85910000      -0.00150000
    23  H          0.79540000       0.64090000       0.49850000
    24  H          0.20460000       0.14090000       0.00150000
    25  C          0.07255000       0.21133000       0.29313000
    26  C          0.92745000       0.71133000       0.20687000
    27  C          0.92745000       0.78867000       0.70687000
    28  C          0.07255000       0.28867000       0.79313000
