data_MBRMET13
_symmetry_space_group_name_H-M    'P1'
_symmetry_Int_Tables_number       1
loop_
_symmetry_equiv_pos_site_id
_symmetry_equiv_pos_as_xyz
1 x,y,z
_cell_length_a                   6.3879
_cell_length_b                   5.1635
_cell_length_c                   7.4925
_cell_angle_alpha                90.0
_cell_angle_beta                 90.0
_cell_angle_gamma                90.0
loop_
_atom_site_label
_atom_site_type_symbol
_atom_site_fract_x
_atom_site_fract_y
_atom_site_fract_z
     1  Br        -0.00000000       0.12073000       0.24641700
     2  Br        -0.00000000       0.87927000       0.74641700
     3  Br         0.50000000       0.62073000       0.24641700
     4  Br         0.50000000       0.37927000       0.74641700
     5  C         -0.00000000       0.38630000       0.42591700
     6  C         -0.00000000       0.61370000       0.92591700
     7  C          0.50000000       0.88630000       0.42591700
     8  C          0.50000000       0.11370000       0.92591700
     9  H         -0.00000000       0.55300000       0.36960000
    10  H          0.00000000       0.44700000       0.86960000
    11  H          0.50000000       0.05300000       0.36960000
    12  H          0.50000000       0.94700000       0.86960000
    13  H          0.12270000       0.36870000       0.49890000
    14  H          0.87730000       0.63130000      -0.00110000
    15  H          0.12270000       0.63130000      -0.00110000
    16  H          0.87730000       0.36870000       0.49890000
    17  H          0.62270000       0.86870000       0.49890000
    18  H          0.37730000       0.13130000      -0.00110000
    19  H          0.62270000       0.13130000      -0.00110000
    20  H          0.37730000       0.86870000       0.49890000
