data_MEAMMF
_symmetry_space_group_name_H-M    'P1'
_symmetry_Int_Tables_number       1
loop_
_symmetry_equiv_pos_site_id
_symmetry_equiv_pos_as_xyz
1 x,y,z
_cell_length_a                   4.4282
_cell_length_b                   4.4282
_cell_length_c                   13.5254
_cell_angle_alpha                90.0
_cell_angle_beta                 90.0
_cell_angle_gamma                120.0
loop_
_atom_site_label
_atom_site_type_symbol
_atom_site_fract_x
_atom_site_fract_y
_atom_site_fract_z
     1  F         -0.00000000       0.00000000      -0.00000000
     2  F          0.33333333       0.66666667       0.66666667
     3  F          0.66666667       0.33333333       0.33333333
     4  C          0.33330000       0.66660000       0.16430000
     5  C          0.66663333       0.33326667       0.83096667
     6  C         -0.00003333      -0.00006667       0.49763333
     7  N          0.33330000       0.66660000       0.05340000
     8  N          0.66663333       0.33326667       0.72006667
     9  N         -0.00003333      -0.00006667       0.38673333
    10  H          0.22170000       0.44330000       0.02310000
    11  H          0.55503333       0.10996667       0.68976667
    12  H          0.88836667       0.77663333       0.35643333
    13  H          0.55670000       0.77840000       0.02310000
    14  H          0.22160000       0.77830000       0.02310000
    15  H          0.89003333       0.44506667       0.68976667
    16  H          0.55493333       0.44496667       0.68976667
    17  H          0.22336667       0.11173333       0.35643333
    18  H          0.88826667       0.11163333       0.35643333
    19  H          0.46100000       0.92200000       0.18260000
    20  H          0.79433333       0.58866667       0.84926667
    21  H          0.12766667       0.25533333       0.51593333
    22  H          0.07800000       0.53900000       0.18260000
    23  H          0.46100000       0.53900000       0.18260000
    24  H          0.41133333       0.20566667       0.84926667
    25  H          0.79433333       0.20566667       0.84926667
    26  H          0.74466667       0.87233333       0.51593333
    27  H          0.12766667       0.87233333       0.51593333
