data_MECHLF10
_symmetry_space_group_name_H-M    'P1'
_symmetry_Int_Tables_number       1
loop_
_symmetry_equiv_pos_site_id
_symmetry_equiv_pos_as_xyz
1 x,y,z
_cell_length_a                   11.531
_cell_length_b                   8.0005
_cell_length_c                   5.881
_cell_angle_alpha                90.0
_cell_angle_beta                 90.0
_cell_angle_gamma                90.0
loop_
_atom_site_label
_atom_site_type_symbol
_atom_site_fract_x
_atom_site_fract_y
_atom_site_fract_z
     1  Cl         0.15331000       0.07012000       0.18986000
     2  Cl         0.34669000       0.92988000       0.68986000
     3  Cl         0.65331000       0.42988000       0.31014000
     4  Cl         0.84669000       0.57012000       0.81014000
     5  Cl         0.84669000       0.92988000       0.81014000
     6  Cl         0.65331000       0.07012000       0.31014000
     7  Cl         0.34669000       0.57012000       0.68986000
     8  Cl         0.15331000       0.42988000       0.18986000
     9  Cl         0.11654000       0.25000000       0.61076000
    10  Cl         0.38346000       0.75000000       0.11076000
    11  Cl         0.61654000       0.25000000       0.88924000
    12  Cl         0.88346000       0.75000000       0.38924000
    13  C          0.08843000       0.25000000       0.31608000
    14  C          0.41157000       0.75000000       0.81608000
    15  C          0.58843000       0.25000000       0.18392000
    16  C          0.91157000       0.75000000       0.68392000
    17  C          0.95939000       0.25000000       0.26728000
    18  C          0.54061000       0.75000000       0.76728000
    19  C          0.45939000       0.25000000       0.23272000
    20  C          0.04061000       0.75000000       0.73272000
    21  H          0.94735000       0.25000000       0.10416000
    22  H          0.55265000       0.75000000       0.60416000
    23  H          0.44735000       0.25000000       0.39584000
    24  H          0.05265000       0.75000000       0.89584000
    25  H          0.91856000       0.17105000       0.34317000
    26  H          0.58144000       0.82895000       0.84317000
    27  H          0.41856000       0.32895000       0.15683000
    28  H          0.08144000       0.67105000       0.65683000
    29  H          0.08144000       0.82895000       0.65683000
    30  H          0.41856000       0.17105000       0.15683000
    31  H          0.58144000       0.67105000       0.84317000
    32  H          0.91856000       0.32895000       0.34317000
