data_MECTAQ
_symmetry_space_group_name_H-M    'P1'
_symmetry_Int_Tables_number       1
loop_
_symmetry_equiv_pos_site_id
_symmetry_equiv_pos_as_xyz
1 x,y,z
_cell_length_a                   8.2053
_cell_length_b                   10.5063
_cell_length_c                   4.1461
_cell_angle_alpha                90.0
_cell_angle_beta                 109.583
_cell_angle_gamma                90.0
loop_
_atom_site_label
_atom_site_type_symbol
_atom_site_fract_x
_atom_site_fract_y
_atom_site_fract_z
     1  C          0.27812140       0.50000000       0.13863000
     2  C          0.77812140      -0.00000000       0.13863000
     3  C          0.72187860       0.50000000       0.86137000
     4  C          0.22187860      -0.00000000       0.86137000
     5  C          0.43544150       0.50000000       0.03753000
     6  C          0.93544150      -0.00000000       0.03753000
     7  C          0.56455850       0.50000000       0.96247000
     8  C          0.06455850      -0.00000000       0.96247000
     9  O          0.22023800       0.60727500       0.17701160
    10  O          0.72023800       0.10727500       0.17701160
    11  O          0.77976200       0.60727500       0.82298840
    12  O          0.27976200       0.10727500       0.82298840
    13  O          0.77976200       0.39272500       0.82298840
    14  O          0.27976200       0.89272500       0.82298840
    15  O          0.22023800       0.39272500       0.17701160
    16  O          0.72023800       0.89272500       0.17701160
    17  N          0.00000000       0.28589900       0.50000000
    18  N          0.50000000       0.78589900       0.50000000
    19  N          0.00000000       0.71410100       0.50000000
    20  N          0.50000000       0.21410100       0.50000000
    21  H          0.08211800       0.23541300       0.64640000
    22  H          0.58211800       0.73541300       0.64640000
    23  H          0.91788200       0.23541300       0.35360000
    24  H          0.41788200       0.73541300       0.35360000
    25  H          0.91788200       0.76458700       0.35360000
    26  H          0.41788200       0.26458700       0.35360000
    27  H          0.08211800       0.76458700       0.64640000
    28  H          0.58211800       0.26458700       0.64640000
    29  H          0.04901900       0.33481300       0.37140000
    30  H          0.54901900       0.83481300       0.37140000
    31  H          0.95098100       0.33481300       0.62860000
    32  H          0.45098100       0.83481300       0.62860000
    33  H          0.95098100       0.66518700       0.62860000
    34  H          0.45098100       0.16518700       0.62860000
    35  H          0.04901900       0.66518700       0.37140000
    36  H          0.54901900       0.16518700       0.37140000
