data_MEDTCN
_symmetry_space_group_name_H-M    'P1'
_symmetry_Int_Tables_number       1
loop_
_symmetry_equiv_pos_site_id
_symmetry_equiv_pos_as_xyz
1 x,y,z
_cell_length_a                   6.66711
_cell_length_b                   8.04213
_cell_length_c                   11.10119
_cell_angle_alpha                90.0
_cell_angle_beta                 105.2525
_cell_angle_gamma                90.0
loop_
_atom_site_label
_atom_site_type_symbol
_atom_site_fract_x
_atom_site_fract_y
_atom_site_fract_z
     1  C          0.00000000       0.39350000       0.75000000
     2  C          0.50000000       0.89350000       0.25000000
     3  C          0.00000000       0.60650000       0.25000000
     4  C          0.50000000       0.10650000       0.75000000
     5  C          0.76500000       0.58670000       0.57790000
     6  C          0.26500000       0.08670000       0.07790000
     7  C          0.23500000       0.58670000       0.92210000
     8  C          0.73500000       0.08670000       0.42210000
     9  C          0.23500000       0.41330000       0.42210000
    10  C          0.73500000       0.91330000       0.92210000
    11  C          0.76500000       0.41330000       0.07790000
    12  C          0.26500000       0.91330000       0.57790000
    13  H         -0.00690000       0.31720000       0.67030000
    14  H          0.49310000       0.81720000       0.17030000
    15  H          0.00690000       0.31720000       0.82970000
    16  H          0.50690000       0.81720000       0.32970000
    17  H          0.00690000       0.68280000       0.32970000
    18  H          0.50690000       0.18280000       0.82970000
    19  H         -0.00690000       0.68280000       0.17030000
    20  H          0.49310000       0.18280000       0.67030000
    21  N          0.76730000       0.64700000       0.48000000
    22  N          0.26730000       0.14700000       0.98000000
    23  N          0.23270000       0.64700000       0.02000000
    24  N          0.73270000       0.14700000       0.52000000
    25  N          0.23270000       0.35300000       0.52000000
    26  N          0.73270000       0.85300000       0.02000000
    27  N          0.76730000       0.35300000       0.98000000
    28  N          0.26730000       0.85300000       0.48000000
    29  S          0.76330000       0.51430000       0.71920000
    30  S          0.26330000       0.01430000       0.21920000
    31  S          0.23670000       0.51430000       0.78080000
    32  S          0.73670000       0.01430000       0.28080000
    33  S          0.23670000       0.48570000       0.28080000
    34  S          0.73670000      -0.01430000       0.78080000
    35  S          0.76330000       0.48570000       0.21920000
    36  S          0.26330000      -0.01430000       0.71920000
