data_METAMM01
_symmetry_space_group_name_H-M    'P1'
_symmetry_Int_Tables_number       1
loop_
_symmetry_equiv_pos_site_id
_symmetry_equiv_pos_as_xyz
1 x,y,z
_cell_length_a                   9.26963
_cell_length_b                   9.26963
_cell_length_c                   5.81894
_cell_angle_alpha                90.0
_cell_angle_beta                 90.0
_cell_angle_gamma                90.0
loop_
_atom_site_label
_atom_site_type_symbol
_atom_site_fract_x
_atom_site_fract_y
_atom_site_fract_z
     1  I         -0.00000000       0.50000000       0.39165700
     2  I          0.50000000       0.00000000       0.60834300
     3  Cl         0.80526110       0.30526110       0.39252000
     4  Cl         0.19473890       0.69473890       0.39252000
     5  Cl         0.30526110       0.19473890       0.60748000
     6  Cl         0.69473890       0.80526110       0.60748000
     7  N         -0.00000000       0.00000000       0.00000000
     8  N          0.50000000       0.50000000      -0.00000000
     9  C          0.88584000       0.93335000       0.14987000
    10  C          0.11416000       0.06665000       0.14987000
    11  C          0.93335000       0.11416000       0.85013000
    12  C          0.06665000       0.88584000       0.85013000
    13  C          0.61416000       0.43335000       0.85013000
    14  C          0.38584000       0.56665000       0.85013000
    15  C          0.56665000       0.61416000       0.14987000
    16  C          0.43335000       0.38584000       0.14987000
    17  H          0.92850000       0.85580000       0.24170000
    18  H          0.07150000       0.14420000       0.24170000
    19  H          0.85580000       0.07150000       0.75830000
    20  H          0.14420000       0.92850000       0.75830000
    21  H          0.57150000       0.35580000       0.75830000
    22  H          0.42850000       0.64420000       0.75830000
    23  H          0.64420000       0.57150000       0.24170000
    24  H          0.35580000       0.42850000       0.24170000
    25  H          0.80880000       0.89390000       0.05300000
    26  H          0.19120000       0.10610000       0.05300000
    27  H          0.89390000       0.19120000       0.94700000
    28  H          0.10610000       0.80880000       0.94700000
    29  H          0.69120000       0.39390000       0.94700000
    30  H          0.30880000       0.60610000       0.94700000
    31  H          0.60610000       0.69120000       0.05300000
    32  H          0.39390000       0.30880000       0.05300000
    33  H          0.84570000       0.00710000       0.25210000
    34  H          0.15430000      -0.00710000       0.25210000
    35  H          0.00710000       0.15430000       0.74790000
    36  H         -0.00710000       0.84570000       0.74790000
    37  H          0.65430000       0.50710000       0.74790000
    38  H          0.34570000       0.49290000       0.74790000
    39  H          0.49290000       0.65430000       0.25210000
    40  H          0.50710000       0.34570000       0.25210000
