data_METAMI
_symmetry_space_group_name_H-M    'P1'
_symmetry_Int_Tables_number       1
loop_
_symmetry_equiv_pos_site_id
_symmetry_equiv_pos_as_xyz
1 x,y,z
_cell_length_a                   5.753
_cell_length_b                   6.177
_cell_length_c                   13.612
_cell_angle_alpha                90.0
_cell_angle_beta                 90.0
_cell_angle_gamma                90.0
loop_
_atom_site_label
_atom_site_type_symbol
_atom_site_fract_x
_atom_site_fract_y
_atom_site_fract_z
     1  C          0.21600000       0.00400000       0.10600000
     2  C          0.78400000       0.49600000       0.60600000
     3  C          0.71600000      -0.00400000       0.39400000
     4  C          0.28400000       0.50400000       0.89400000
     5  C          0.78400000      -0.00400000       0.89400000
     6  C          0.21600000       0.50400000       0.39400000
     7  C          0.28400000       0.00400000       0.60600000
     8  C          0.71600000       0.49600000       0.10600000
     9  N          0.25700000       0.06500000       0.21000000
    10  N          0.74300000       0.43500000       0.71000000
    11  N          0.75700000       0.93500000       0.29000000
    12  N          0.24300000       0.56500000       0.79000000
    13  N          0.74300000       0.93500000       0.79000000
    14  N          0.25700000       0.56500000       0.29000000
    15  N          0.24300000       0.06500000       0.71000000
    16  N          0.75700000       0.43500000       0.21000000
    17  H          0.25700000       0.22000000       0.23500000
    18  H          0.74300000       0.28000000       0.73500000
    19  H          0.75700000       0.78000000       0.26500000
    20  H          0.24300000       0.72000000       0.76500000
    21  H          0.74300000       0.78000000       0.76500000
    22  H          0.25700000       0.72000000       0.26500000
    23  H          0.24300000       0.22000000       0.73500000
    24  H          0.75700000       0.28000000       0.23500000
    25  H          0.41600000       0.02400000       0.23500000
    26  H          0.58400000       0.47600000       0.73500000
    27  H          0.91600000       0.97600000       0.26500000
    28  H          0.08400000       0.52400000       0.76500000
    29  H          0.58400000       0.97600000       0.76500000
    30  H          0.41600000       0.52400000       0.26500000
    31  H          0.08400000       0.02400000       0.73500000
    32  H          0.91600000       0.47600000       0.23500000
    33  H          0.36000000       0.07000000       0.06000000
    34  H          0.64000000       0.43000000       0.56000000
    35  H          0.86000000       0.93000000       0.44000000
    36  H          0.14000000       0.57000000       0.94000000
    37  H          0.64000000       0.93000000       0.94000000
    38  H          0.36000000       0.57000000       0.44000000
    39  H          0.14000000       0.07000000       0.56000000
    40  H          0.86000000       0.43000000       0.06000000
    41  H          0.21000000       0.83000000       0.10000000
    42  H          0.79000000       0.67000000       0.60000000
    43  H          0.71000000       0.17000000       0.40000000
    44  H          0.29000000       0.33000000       0.90000000
    45  H          0.79000000       0.17000000       0.90000000
    46  H          0.21000000       0.33000000       0.40000000
    47  H          0.29000000       0.83000000       0.60000000
    48  H          0.71000000       0.67000000       0.10000000
    49  H          0.05000000       0.07000000       0.08000000
    50  H          0.95000000       0.43000000       0.58000000
    51  H          0.55000000       0.93000000       0.42000000
    52  H          0.45000000       0.57000000       0.92000000
    53  H          0.95000000       0.93000000       0.92000000
    54  H          0.05000000       0.57000000       0.42000000
    55  H          0.45000000       0.07000000       0.58000000
    56  H          0.55000000       0.43000000       0.08000000
