data_MIJJAR
_symmetry_space_group_name_H-M    'P1'
_symmetry_Int_Tables_number       1
loop_
_symmetry_equiv_pos_site_id
_symmetry_equiv_pos_as_xyz
1 x,y,z
_cell_length_a                   6.1876
_cell_length_b                   7.6937
_cell_length_c                   11.53511
_cell_angle_alpha                90.0
_cell_angle_beta                 90.0
_cell_angle_gamma                90.0
loop_
_atom_site_label
_atom_site_type_symbol
_atom_site_fract_x
_atom_site_fract_y
_atom_site_fract_z
     1  O          0.50000000       0.15352150       0.57432900
     2  O          0.00000000       0.65352150       0.57432900
     3  O          0.50000000       0.34647850       0.07432900
     4  O          0.50000000       0.65352150       0.92567100
     5  O          0.50000000       0.84647850       0.42567100
     6  O          0.00000000       0.84647850       0.07432900
     7  O          0.00000000       0.15352150       0.92567100
     8  O          0.00000000       0.34647850       0.42567100
     9  N          0.50000000       0.27027170       0.48093110
    10  N          0.00000000       0.77027170       0.48093110
    11  N          0.50000000       0.22972830       0.98093110
    12  N          0.50000000       0.77027170       0.01906890
    13  N          0.50000000       0.72972830       0.51906890
    14  N         -0.00000000       0.72972830       0.98093110
    15  N          0.00000000       0.27027170       0.01906890
    16  N          0.00000000       0.22972830       0.51906890
    17  C          0.50000000       0.41913180       0.53286120
    18  C          0.00000000       0.91913180       0.53286120
    19  C          0.50000000       0.08086820       0.03286120
    20  C          0.50000000       0.91913180       0.96713880
    21  C          0.50000000       0.58086820       0.46713880
    22  C          0.00000000       0.58086820       0.03286120
    23  C         -0.00000000       0.41913180       0.96713880
    24  C          0.00000000       0.08086820       0.46713880
    25  N          0.50000000       0.41320180       0.65185120
    26  N          0.00000000       0.91320180       0.65185120
    27  N          0.50000000       0.08679820       0.15185120
    28  N          0.50000000       0.91320180       0.84814880
    29  N          0.50000000       0.58679820       0.34814880
    30  N          0.00000000       0.58679820       0.15185120
    31  N          0.00000000       0.41320180       0.84814880
    32  N         -0.00000000       0.08679820       0.34814880
    33  C          0.50000000       0.24892000       0.67016130
    34  C          0.00000000       0.74892000       0.67016130
    35  C          0.50000000       0.25108000       0.17016130
    36  C          0.50000000       0.74892000       0.82983870
    37  C          0.50000000       0.75108000       0.32983870
    38  C          0.00000000       0.75108000       0.17016130
    39  C         -0.00000000       0.24892000       0.82983870
    40  C         -0.00000000       0.25108000       0.32983870
    41  H          0.50000000       0.19970000       0.74570000
    42  H          0.00000000       0.69970000       0.74570000
    43  H          0.50000000       0.30030000       0.24570000
    44  H          0.50000000       0.69970000       0.75430000
    45  H          0.50000000       0.80030000       0.25430000
    46  H          0.00000000       0.80030000       0.24570000
    47  H          0.00000000       0.19970000       0.75430000
    48  H         -0.00000000       0.30030000       0.25430000
