data_MILMOJ
_symmetry_space_group_name_H-M    'P1'
_symmetry_Int_Tables_number       1
loop_
_symmetry_equiv_pos_site_id
_symmetry_equiv_pos_as_xyz
1 x,y,z
_cell_length_a                   10.51141
_cell_length_b                   3.78254
_cell_length_c                   6.47507
_cell_angle_alpha                90.0
_cell_angle_beta                 90.0
_cell_angle_gamma                90.0
loop_
_atom_site_label
_atom_site_type_symbol
_atom_site_fract_x
_atom_site_fract_y
_atom_site_fract_z
     1  N          0.50000000       0.50000000       0.31545000
     2  N          0.00000000      -0.00000000       0.68455000
     3  H          0.50000000       0.50000000       0.19680000
     4  H          0.00000000      -0.00000000       0.80320000
     5  C          0.59553000       0.63528000       0.43554000
     6  C          0.40447000       0.36472000       0.43554000
     7  C          0.90447000       0.13528000       0.56446000
     8  C          0.09553000       0.86472000       0.56446000
     9  H          0.66930000       0.75080000       0.37750000
    10  H          0.33070000       0.24920000       0.37750000
    11  H          0.83070000       0.25080000       0.62250000
    12  H          0.16930000       0.74920000       0.62250000
    13  C          0.56022000       0.58537000       0.63694000
    14  C          0.43978000       0.41463000       0.63694000
    15  C          0.93978000       0.08537000       0.36306000
    16  C          0.06022000       0.91463000       0.36306000
    17  Cl         0.64501600       0.71253160       0.85169900
    18  Cl         0.35498400       0.28746840       0.85169900
    19  Cl         0.85498400       0.21253160       0.14830100
    20  Cl         0.14501600       0.78746840       0.14830100
