data_MINSUZ01
_symmetry_space_group_name_H-M    'P1'
_symmetry_Int_Tables_number       1
loop_
_symmetry_equiv_pos_site_id
_symmetry_equiv_pos_as_xyz
1 x,y,z
_cell_length_a                   7.76584
_cell_length_b                   7.21813
_cell_length_c                   5.90313
_cell_angle_alpha                90.0
_cell_angle_beta                 91.9984
_cell_angle_gamma                90.0
loop_
_atom_site_label
_atom_site_type_symbol
_atom_site_fract_x
_atom_site_fract_y
_atom_site_fract_z
     1  S          0.14608500       0.55105600       0.22129700
     2  S          0.85391500       0.05105600       0.27870300
     3  S          0.85391500       0.44894400       0.77870300
     4  S          0.14608500       0.94894400       0.72129700
     5  H          0.19310000       0.64920000       0.07730000
     6  H          0.80690000       0.14920000       0.42270000
     7  H          0.80690000       0.35080000       0.92270000
     8  H          0.19310000       0.85080000       0.57730000
     9  C          0.34554190       0.44173190       0.58802000
    10  C          0.65445810       0.94173190       0.91198000
    11  C          0.65445810       0.55826810       0.41198000
    12  C          0.34554190       0.05826810       0.08802000
    13  H          0.24000000       0.40200000       0.64850000
    14  H          0.76000000       0.90200000       0.85150000
    15  H          0.76000000       0.59800000       0.35150000
    16  H          0.24000000       0.09800000       0.14850000
    17  C          0.34514190       0.52602180       0.37462000
    18  C          0.65485810       0.02602180       0.12538000
    19  C          0.65485810       0.47397820       0.62538000
    20  C          0.34514190       0.97397820       0.87462000
    21  C          0.50142000       0.58440190       0.28792000
    22  C          0.49858000       0.08440190       0.21208000
    23  C          0.49858000       0.41559810       0.71208000
    24  C          0.50142000       0.91559810       0.78792000
    25  H          0.50280000       0.64220000       0.14340000
    26  H          0.49720000       0.14220000       0.35660000
    27  H          0.49720000       0.35780000       0.85660000
    28  H          0.50280000       0.85780000       0.64340000
