data_MSULPH01
_symmetry_space_group_name_H-M    'P1'
_symmetry_Int_Tables_number       1
loop_
_symmetry_equiv_pos_site_id
_symmetry_equiv_pos_as_xyz
1 x,y,z
_cell_length_a                   10.0122
_cell_length_b                   7.4351
_cell_length_c                   5.3631
_cell_angle_alpha                90.0
_cell_angle_beta                 90.0
_cell_angle_gamma                90.0
loop_
_atom_site_label
_atom_site_type_symbol
_atom_site_fract_x
_atom_site_fract_y
_atom_site_fract_z
     1  S          0.33584800       0.25000000       0.18603130
     2  S          0.16415200       0.75000000       0.68603130
     3  S          0.66415200       0.75000000       0.81396870
     4  S          0.83584800       0.25000000       0.31396870
     5  N          0.18193000       0.25000000       0.10028000
     6  N          0.31807000       0.75000000       0.60028000
     7  N          0.81807000       0.75000000       0.89972000
     8  N          0.68193000       0.25000000       0.39972000
     9  O          0.35933000       0.41603000       0.31593000
    10  O          0.14067000       0.58397000       0.81593000
    11  O          0.64067000       0.91603000       0.68407000
    12  O          0.85933000       0.08397000       0.18407000
    13  O          0.64067000       0.58397000       0.68407000
    14  O          0.85933000       0.41603000       0.18407000
    15  O          0.35933000       0.08397000       0.31593000
    16  O          0.14067000       0.91603000       0.81593000
    17  C          0.43514000       0.25000000       0.91733000
    18  C          0.06486000       0.75000000       0.41733000
    19  C          0.56486000       0.75000000       0.08267000
    20  C          0.93514000       0.25000000       0.58267000
    21  H          0.50860000       0.25000000      -0.01514000
    22  H         -0.00860000       0.75000000       0.48486000
    23  H          0.49140000       0.75000000       0.01514000
    24  H          0.00860000       0.25000000       0.51514000
    25  H          0.40640000       0.34930000       0.79740000
    26  H          0.09360000       0.65070000       0.29740000
    27  H          0.59360000       0.84930000       0.20260000
    28  H          0.90640000       0.15070000       0.70260000
    29  H          0.59360000       0.65070000       0.20260000
    30  H          0.90640000       0.34930000       0.70260000
    31  H          0.40640000       0.15070000       0.79740000
    32  H          0.09360000       0.84930000       0.29740000
    33  H          0.16830000       0.33540000       0.03480000
    34  H          0.33170000       0.66460000       0.53480000
    35  H          0.83170000       0.83540000       0.96520000
    36  H          0.66830000       0.16460000       0.46520000
    37  H          0.83170000       0.66460000       0.96520000
    38  H          0.66830000       0.33540000       0.46520000
    39  H          0.16830000       0.16460000       0.03480000
    40  H          0.33170000       0.83540000       0.53480000
