data_MURXIJ
_symmetry_space_group_name_H-M    'P1'
_symmetry_Int_Tables_number       1
loop_
_symmetry_equiv_pos_site_id
_symmetry_equiv_pos_as_xyz
1 x,y,z
_cell_length_a                   8.35846
_cell_length_b                   8.35846
_cell_length_c                   6.70059
_cell_angle_alpha                90.0
_cell_angle_beta                 90.0
_cell_angle_gamma                90.0
loop_
_atom_site_label
_atom_site_type_symbol
_atom_site_fract_x
_atom_site_fract_y
_atom_site_fract_z
     1  N          0.22787160       0.04719150       0.01312000
     2  N          0.27212840       0.45280850       0.01312000
     3  N          0.95280850       0.72787160       0.51312000
     4  N          0.54719150       0.77212840       0.51312000
     5  N          0.77212840       0.95280850      -0.01312000
     6  N          0.72787160       0.54719150      -0.01312000
     7  N          0.04719150       0.27212840       0.48688000
     8  N          0.45280850       0.22787160       0.48688000
     9  C          0.25000000       0.25000000       0.75000000
    10  C          0.75000000       0.75000000       0.25000000
    11  C          0.13817160       0.14657170       0.87918000
    12  C          0.36182840       0.35342830       0.87918000
    13  C          0.85342830       0.63817160       0.37918000
    14  C          0.64657170       0.86182840       0.37918000
    15  C          0.86182840       0.85342830       0.12082000
    16  C          0.63817160       0.64657170       0.12082000
    17  C          0.14657170       0.36182840       0.62082000
    18  C          0.35342830       0.13817160       0.62082000
    19  H          0.06607700       0.21685500       0.95705000
    20  H          0.43392300       0.28314500       0.95705000
    21  H          0.78314500       0.56607700       0.45705000
    22  H          0.71685500       0.93392300       0.45705000
    23  H          0.93392300       0.78314500       0.04295000
    24  H          0.56607700       0.71685500       0.04295000
    25  H          0.21685500       0.43392300       0.54295000
    26  H          0.28314500       0.06607700       0.54295000
    27  H          0.07129900       0.07847000       0.79173600
    28  H          0.42870100       0.42153000       0.79173600
    29  H          0.92153000       0.57129900       0.29173600
    30  H          0.57847000       0.92870100       0.29173600
    31  H          0.92870100       0.92153000       0.20826400
    32  H          0.57129900       0.57847000       0.20826400
    33  H          0.07847000       0.42870100       0.70826400
    34  H          0.42153000       0.07129900       0.70826400
    35  C          0.30362000       0.96998000       0.12033000
    36  C          0.19638000       0.53002000       0.12033000
    37  C          0.03002000       0.80362000       0.62033000
    38  C          0.46998000       0.69638000       0.62033000
    39  C          0.69638000       0.03002000       0.87967000
    40  C          0.80362000       0.46998000       0.87967000
    41  C          0.96998000       0.19638000       0.37967000
    42  C          0.53002000       0.30362000       0.37967000
