data_NAGVAS01
_symmetry_space_group_name_H-M    'P1'
_symmetry_Int_Tables_number       1
loop_
_symmetry_equiv_pos_site_id
_symmetry_equiv_pos_as_xyz
1 x,y,z
_cell_length_a                   4.95425
_cell_length_b                   6.39586
_cell_length_c                   8.52518
_cell_angle_alpha                90.0
_cell_angle_beta                 98.9677
_cell_angle_gamma                90.0
loop_
_atom_site_label
_atom_site_type_symbol
_atom_site_fract_x
_atom_site_fract_y
_atom_site_fract_z
     1  C          0.47801000       0.59837000       0.45855000
     2  C          0.02199000       0.09837000       0.04145000
     3  C          0.52199000       0.40163000       0.54145000
     4  C         -0.02199000       0.90163000       0.95855000
     5  N          0.66668000       0.70616000       0.40115000
     6  N          0.83332000       0.20616000       0.09885000
     7  N          0.33332000       0.29384000       0.59885000
     8  N          0.16668000       0.79384000       0.90115000
     9  H          0.04692000       0.71494000       0.42886000
    10  H          0.45308000       0.21494000       0.07114000
    11  H          0.95308000       0.28506000       0.57114000
    12  H          0.54692000       0.78506000       0.92886000
    13  N          0.54791000       0.87807000       0.32685000
    14  N          0.95209000       0.37807000       0.17315000
    15  N          0.45209000       0.12193000       0.67315000
    16  N          0.04791000       0.62193000       0.82685000
    17  N          0.29439000       0.87117000       0.34145000
    18  N          0.20561000       0.37117000       0.15855000
    19  N          0.70561000       0.12883000       0.65855000
    20  N          0.79439000       0.62883000       0.84145000
    21  N          0.23994000       0.69733000       0.42530000
    22  N          0.26006000       0.19733000       0.07470000
    23  N          0.76006000       0.30267000       0.57470000
    24  N          0.73994000       0.80267000       0.92530000
