data_NAGVAS
_symmetry_space_group_name_H-M    'P1'
_symmetry_Int_Tables_number       1
loop_
_symmetry_equiv_pos_site_id
_symmetry_equiv_pos_as_xyz
1 x,y,z
_cell_length_a                   4.9451
_cell_length_b                   6.3671
_cell_length_c                   8.4911
_cell_angle_alpha                90.0
_cell_angle_beta                 99.2337
_cell_angle_gamma                90.0
loop_
_atom_site_label
_atom_site_type_symbol
_atom_site_fract_x
_atom_site_fract_y
_atom_site_fract_z
     1  N          0.16812000       0.79176110       0.40023800
     2  N          0.33188000       0.29176110       0.09976200
     3  N          0.83188000       0.20823890       0.59976200
     4  N          0.66812000       0.70823890       0.90023800
     5  H          0.36344200       0.81281900       0.41031600
     6  H          0.13655800       0.31281900       0.08968400
     7  H          0.63655800       0.18718100       0.58968400
     8  H          0.86344200       0.68718100       0.91031600
     9  N          0.04902000       0.62047110       0.32685900
    10  N          0.45098000       0.12047110       0.17314100
    11  N          0.95098000       0.37952890       0.67314100
    12  N          0.54902000       0.87952890       0.82685900
    13  N          0.79228000       0.62735110       0.34213900
    14  N          0.70772000       0.12735110       0.15786100
    15  N          0.20772000       0.37264890       0.65786100
    16  N          0.29228000       0.87264890       0.84213900
    17  N          0.74048000       0.80135100       0.42524800
    18  N          0.75952000       0.30135100       0.07475200
    19  N          0.25952000       0.19864900       0.57475200
    20  N          0.24048000       0.69864900       0.92524800
    21  C         -0.02362000       0.89999110       0.45839800
    22  C          0.52362000       0.39999110       0.04160200
    23  C          0.02362000       0.10000890       0.54160200
    24  C          0.47638000       0.60000890       0.95839800
