data_NECZIE
_symmetry_space_group_name_H-M    'P1'
_symmetry_Int_Tables_number       1
loop_
_symmetry_equiv_pos_site_id
_symmetry_equiv_pos_as_xyz
1 x,y,z
_cell_length_a                   3.84961
_cell_length_b                   7.95777
_cell_length_c                   15.528018
_cell_angle_alpha                90.0
_cell_angle_beta                 95.96314
_cell_angle_gamma                90.0
loop_
_atom_site_label
_atom_site_type_symbol
_atom_site_fract_x
_atom_site_fract_y
_atom_site_fract_z
     1  Cl         0.35449190       0.83870700       0.06428400
     2  Cl         0.64550810       0.33870700       0.43571600
     3  Cl         0.64550810       0.16129300       0.93571600
     4  Cl         0.35449190       0.66129300       0.56428400
     5  S         -0.02382000       0.41024900       0.23574400
     6  S          0.02382000       0.91024900       0.26425600
     7  S          0.02382000       0.58975100       0.76425600
     8  S         -0.02382000       0.08975100       0.73574400
     9  S          0.77354820       0.24667800       0.13779400
    10  S          0.22645180       0.74667800       0.36220600
    11  S          0.22645180       0.75332200       0.86220600
    12  S          0.77354820       0.25332200       0.63779400
    13  N          0.10426000       0.56062000       0.17429120
    14  N          0.89574000       0.06062000       0.32570880
    15  N          0.89574000       0.43938000       0.82570880
    16  N          0.10426000       0.93938000       0.67429120
    17  C          0.05847000       0.53503000       0.09080140
    18  C          0.94153000       0.03503000       0.40919860
    19  C          0.94153000       0.46497000       0.90919860
    20  C          0.05847000       0.96497000       0.59080140
    21  C          0.16017000       0.65333000       0.02860140
    22  C          0.83983000       0.15333000       0.47139860
    23  C          0.83983000       0.34667000       0.97139860
    24  C          0.16017000       0.84667000       0.52860140
    25  C          0.10686000       0.61993000       0.94258860
    26  C          0.89314000       0.11993000       0.55741140
    27  C          0.89314000       0.38007000       0.05741140
    28  C          0.10686000       0.88007000       0.44258860
