data_NUNKUC
_symmetry_space_group_name_H-M    'P1'
_symmetry_Int_Tables_number       1
loop_
_symmetry_equiv_pos_site_id
_symmetry_equiv_pos_as_xyz
1 x,y,z
_cell_length_a                   3.75824
_cell_length_b                   14.550515
_cell_length_c                   6.24516
_cell_angle_alpha                90.0
_cell_angle_beta                 101.1628
_cell_angle_gamma                90.0
loop_
_atom_site_label
_atom_site_type_symbol
_atom_site_fract_x
_atom_site_fract_y
_atom_site_fract_z
     1  Cl         0.67959150       0.81283300       0.06751100
     2  Cl         0.82040850       0.31283300       0.43248900
     3  Cl         0.32040850       0.18716700       0.93248900
     4  Cl         0.17959150       0.68716700       0.56751100
     5  N          0.81407000       0.89041140       0.64086000
     6  N          0.68593000       0.39041140       0.85914000
     7  N          0.18593000       0.10958860       0.35914000
     8  N          0.31407000       0.60958860       0.14086000
     9  N          0.95225000       0.97172110       0.20383000
    10  N          0.54775000       0.47172110       0.29617000
    11  N          0.04775000       0.02827890       0.79617000
    12  N          0.45225000       0.52827890       0.70383000
    13  C          0.89986000       0.94546130       0.81986000
    14  C          0.60014000       0.44546130       0.68014000
    15  C          0.10014000       0.05453870       0.18014000
    16  C          0.39986000       0.55453870       0.31986000
    17  C          0.85976000       0.91998120       0.02814000
    18  C          0.64024000       0.41998120       0.47186000
    19  C          0.14024000       0.08001880       0.97186000
    20  C          0.35976000       0.58001880       0.52814000
    21  H          0.81960000       0.91721300       0.50860000
    22  H          0.68040000       0.41721300      -0.00860000
    23  H          0.18040000       0.08278700       0.49140000
    24  H          0.31960000       0.58278700       0.00860000
    25  H          0.65860000       0.84921300       0.64560000
    26  H          0.84140000       0.34921300       0.85440000
    27  H          0.34140000       0.15078700       0.35440000
    28  H          0.15860000       0.65078700       0.14560000
