data_OBNZQU
_symmetry_space_group_name_H-M    'P1'
_symmetry_Int_Tables_number       1
loop_
_symmetry_equiv_pos_site_id
_symmetry_equiv_pos_as_xyz
1 x,y,z
_cell_length_a                   6.31377
_cell_length_b                   5.79855
_cell_length_c                   6.8865
_cell_angle_alpha                90.0
_cell_angle_beta                 90.0
_cell_angle_gamma                90.0
loop_
_atom_site_label
_atom_site_type_symbol
_atom_site_fract_x
_atom_site_fract_y
_atom_site_fract_z
     1  C          0.43190000       0.38970000       0.56700000
     2  C          0.93190000       0.11030000       0.43300000
     3  C          0.06810000       0.88970000       0.43300000
     4  C          0.56810000       0.61030000       0.56700000
     5  C          0.37460000       0.29180000       0.75560000
     6  C          0.87460000       0.20820000       0.24440000
     7  C          0.12540000       0.79180000       0.24440000
     8  C          0.62540000       0.70820000       0.75560000
     9  C          0.43840000       0.39500000       0.91890000
    10  C          0.93840000       0.10500000       0.08110000
    11  C          0.06160000       0.89500000       0.08110000
    12  C          0.56160000       0.60500000       0.91890000
    13  H          0.28800000       0.15460000       0.75660000
    14  H          0.78800000       0.34540000       0.24340000
    15  H          0.21200000       0.65460000       0.24340000
    16  H          0.71200000       0.84540000       0.75660000
    17  H          0.39890000       0.33770000       0.04100000
    18  H          0.89890000       0.16230000       0.95900000
    19  H          0.10110000       0.83770000       0.95900000
    20  H          0.60110000       0.66230000       0.04100000
    21  O          0.37600000       0.30600000       0.41350000
    22  O          0.87600000       0.19400000       0.58650000
    23  O          0.12400000       0.80600000       0.58650000
    24  O          0.62400000       0.69400000       0.41350000
