
#######################################################################
#
#                 Cambridge Crystallographic Data Centre
#                                CCDC 
#
#######################################################################
#
# If this CIF has been generated from an entry in the Cambridge 
# Structural Database, then it will include bibliographic, chemical, 
# crystal, experimental, refinement or atomic coordinate data resulting 
# from the CCDC's data processing and validation procedures.
#
#######################################################################

data_OPUSEY
_chemical_formula_moiety         'C5 H4 O4'
_chemical_name_systematic        5,6-Dioxaspiro[2.4]heptane-4,7-dione
_symmetry_cell_setting           orthorhombic
_symmetry_space_group_name_H-M   'C m c m'
_symmetry_Int_Tables_number      63
_space_group_name_Hall           '-C 2c 2'
loop_
_symmetry_equiv_pos_site_id
_symmetry_equiv_pos_as_xyz
1 x,y,z
2 -x,-y,1/2+z
3 x,-y,-z
4 -x,y,1/2-z
5 1/2+x,1/2+y,z
6 1/2-x,1/2-y,1/2+z
7 1/2+x,1/2-y,-z
8 1/2-x,1/2+y,1/2-z
9 -x,-y,-z
10 x,y,1/2-z
11 -x,y,z
12 x,-y,1/2+z
13 1/2-x,1/2-y,-z
14 1/2+x,1/2+y,1/2-z
15 1/2-x,1/2+y,z
16 1/2+x,1/2-y,1/2+z
_cell_length_a                   9.7170(10)
_cell_length_b                   9.2110(9)
_cell_length_c                   6.0350(5)
_cell_angle_alpha                90
_cell_angle_beta                 90
_cell_angle_gamma                90
_cell_volume                     540.152
_exptl_crystal_colour            colorless
_exptl_crystal_description       block
_cell_formula_units_Z            4
loop_
_atom_site_label
_atom_site_type_symbol
_atom_site_fract_x
_atom_site_fract_y
_atom_site_fract_z
_atom_site_U_iso_or_equiv
_atom_site_thermal_displace_type
C1 C 0.62060(15) 0.59402(17) 0.2500 0.0252 Uani
C2 C 0.5000 0.6872(2) 0.2500 0.0221 Uani
C3 C 0.5000 0.83336(17) 0.1293(3) 0.0321 Uani
O1 O 0.57593(12) 0.45063(12) 0.2500 0.0325 Uani
O2 O 0.74129(11) 0.61697(14) 0.2500 0.0367 Uani
H1 H 0.5849(14) 0.8520(13) 0.048(2) 0.0430 Uiso
C1C C 0.37940(15) 0.59402(17) 0.2500 0.0252 Uani
C3C C 0.5000 0.83336(17) 0.3707(3) 0.0321 Uani
O1C O 0.42407(12) 0.45063(12) 0.2500 0.0325 Uani
O2C O 0.25871(11) 0.61697(14) 0.2500 0.0367 Uani
H1C H 0.4151(14) 0.8520(13) 0.452(2) 0.0430 Uiso
H1I H 0.5849(14) 0.8520(13) 0.452(2) 0.0430 Uiso
H1J H 0.4151(14) 0.8520(13) 0.048(2) 0.0430 Uiso
loop_
_atom_site_aniso_label
_atom_site_aniso_U_11
_atom_site_aniso_U_22
_atom_site_aniso_U_33
_atom_site_aniso_U_23
_atom_site_aniso_U_13
_atom_site_aniso_U_12
C1 0.0280(9) 0.0315(9) 0.0162(8) 0.000 0.000 0.0054(6)
C2 0.0217(11) 0.0233(11) 0.0213(10) 0.000 0.000 0.000
C3 0.0300(9) 0.0257(9) 0.0407(10) 0.0076(7) 0.000 0.000
O1 0.0404(8) 0.0282(7) 0.0289(7) 0.000 0.000 0.0079(5)
O2 0.0230(7) 0.0530(9) 0.0340(7) 0.000 0.000 0.0069(5)
C1C 0.028 0.0315 0.0162 0 0 -0.0054
C3C 0.03 0.0257 0.0407 -0.0076 0 0
O1C 0.0404 0.0282 0.0289 0 0 -0.0079
O2C 0.023 0.053 0.034 0 0 -0.0069
loop_
_geom_bond_atom_site_label_1
_geom_bond_atom_site_label_2
_geom_bond_site_symmetry_1
_geom_bond_site_symmetry_2
C1 C2 1_555 1_555
C2 C3 1_555 1_555
C3 H1 1_555 1_555
O1 C1 1_555 1_555
O2 C1 1_555 1_555
C1C C2 1_555 1_555
C3C C2 1_555 1_555
O1C O1 1_555 1_555
O2C C1C 1_555 1_555
H1C C3C 1_555 1_555
H1I C3C 1_555 1_555
H1J C3 1_555 1_555
C3 C3C 1_555 1_555
C1C O1C 1_555 1_555

#END
