data_OSIXAR
_symmetry_space_group_name_H-M    'P1'
_symmetry_Int_Tables_number       1
loop_
_symmetry_equiv_pos_site_id
_symmetry_equiv_pos_as_xyz
1 x,y,z
_cell_length_a                   6.590016
_cell_length_b                   3.97181
_cell_length_c                   10.9683
_cell_angle_alpha                90.0
_cell_angle_beta                 100.70912
_cell_angle_gamma                90.0
loop_
_atom_site_label
_atom_site_type_symbol
_atom_site_fract_x
_atom_site_fract_y
_atom_site_fract_z
     1  C          0.63874000       0.47898000       0.42683000
     2  C          0.36126000      -0.02102000       0.07317000
     3  C          0.36126000       0.52102000       0.57317000
     4  C          0.63874000       0.02102000       0.92683000
     5  N          0.47114000       0.66787000       0.38472000
     6  N          0.52886000       0.16787000       0.11528000
     7  N          0.52886000       0.33213000       0.61528000
     8  N          0.47114000       0.83213000       0.88472000
     9  C          0.33205000       0.68458000       0.45923000
    10  C          0.66795000       0.18458000       0.04077000
    11  C          0.66795000       0.31542000       0.54077000
    12  C          0.33205000       0.81542000       0.95923000
    13  H          0.20950000       0.81190000       0.43340000
    14  H          0.79050000       0.31190000       0.06660000
    15  H          0.79050000       0.18810000       0.56660000
    16  H          0.20950000       0.68810000       0.93340000
    17  C          0.79495000       0.45739000       0.34473000
    18  C          0.20505000       0.95739000       0.15527000
    19  C          0.20505000       0.54261000       0.65527000
    20  C          0.79495000       0.04261000       0.84473000
    21  H          0.78200000       0.60390000       0.27520000
    22  H          0.21800000       0.10390000       0.22480000
    23  H          0.21800000       0.39610000       0.72480000
    24  H          0.78200000       0.89610000       0.77520000
    25  O          0.93733000       0.26046000       0.36302000
    26  O          0.06267000       0.76046000       0.13698000
    27  O          0.06267000       0.73954000       0.63698000
    28  O          0.93733000       0.23954000       0.86302000
