data_OXADOH
_symmetry_space_group_name_H-M    'P1'
_symmetry_Int_Tables_number       1
loop_
_symmetry_equiv_pos_site_id
_symmetry_equiv_pos_as_xyz
1 x,y,z
_cell_length_a                   5.18309
_cell_length_b                   7.500511
_cell_length_c                   6.804912
_cell_angle_alpha                90.0
_cell_angle_beta                 102.37416
_cell_angle_gamma                90.0
loop_
_atom_site_label
_atom_site_type_symbol
_atom_site_fract_x
_atom_site_fract_y
_atom_site_fract_z
     1  Br         0.05137100       0.25000000       0.75825700
     2  Br         0.94862900       0.75000000       0.24174300
     3  N          0.41576000       0.60834000       0.77294000
     4  N          0.58424000       0.10834000       0.22706000
     5  N          0.58424000       0.39166000       0.22706000
     6  N          0.41576000       0.89166000       0.77294000
     7  H          0.35870000       0.50230000       0.78350000
     8  H          0.64130000       0.00230000       0.21650000
     9  H          0.64130000       0.49770000       0.21650000
    10  H          0.35870000      -0.00230000       0.78350000
    11  C          0.61396000       0.66094000       0.68245000
    12  C          0.38604000       0.16094000       0.31755000
    13  C          0.38604000       0.33906000       0.31755000
    14  C          0.61396000       0.83906000       0.68245000
    15  H          0.72730000       0.58700000       0.63070000
    16  H          0.27270000       0.08700000       0.36930000
    17  H          0.27270000       0.41300000       0.36930000
    18  H          0.72730000       0.91300000       0.63070000
    19  C          0.29711000       0.75000000       0.82597000
    20  C          0.70289000       0.25000000       0.17403000
    21  H          0.15510000       0.75000000       0.88950000
    22  H          0.84490000       0.25000000       0.11050000
