data_OXALAC04
_symmetry_space_group_name_H-M    'P1'
_symmetry_Int_Tables_number       1
loop_
_symmetry_equiv_pos_site_id
_symmetry_equiv_pos_as_xyz
1 x,y,z
_cell_length_a                   5.3304
_cell_length_b                   6.0155
_cell_length_c                   5.4364
_cell_angle_alpha                90.0
_cell_angle_beta                 115.833
_cell_angle_gamma                90.0
loop_
_atom_site_label
_atom_site_type_symbol
_atom_site_fract_x
_atom_site_fract_y
_atom_site_fract_z
     1  C          0.14410000       0.00270000       0.00010000
     2  C          0.85590000       0.50270000       0.49990000
     3  C          0.85590000      -0.00270000      -0.00010000
     4  C          0.14410000       0.49730000       0.50010000
     5  H          0.49900000       0.89800000       0.18100000
     6  H          0.50100000       0.39800000       0.31900000
     7  H          0.50100000       0.10200000       0.81900000
     8  H          0.49900000       0.60200000       0.68100000
     9  O          0.17850000       0.10440000       0.82240000
    10  O          0.82150000       0.60440000       0.67760000
    11  O          0.82150000       0.89560000       0.17760000
    12  O          0.17850000       0.39560000       0.32240000
    13  O          0.33110000       0.89470000       0.20170000
    14  O          0.66890000       0.39470000       0.29830000
    15  O          0.66890000       0.10530000       0.79830000
    16  O          0.33110000       0.60530000       0.70170000
