data_OXALAC03
_symmetry_space_group_name_H-M    'P1'
_symmetry_Int_Tables_number       1
loop_
_symmetry_equiv_pos_site_id
_symmetry_equiv_pos_as_xyz
1 x,y,z
_cell_length_a                   6.5485
_cell_length_b                   7.8445
_cell_length_c                   6.0865
_cell_angle_alpha                90.0
_cell_angle_beta                 90.0
_cell_angle_gamma                90.0
loop_
_atom_site_label
_atom_site_type_symbol
_atom_site_fract_x
_atom_site_fract_y
_atom_site_fract_z
     1  C          0.05698000       0.05521000       0.91559000
     2  C          0.94302000       0.44479000       0.41559000
     3  C          0.55698000       0.94479000       0.58441000
     4  C          0.44302000       0.55521000       0.08441000
     5  C          0.94302000       0.94479000       0.08441000
     6  C          0.05698000       0.55521000       0.58441000
     7  C          0.44302000       0.05521000       0.41559000
     8  C          0.55698000       0.44479000       0.91559000
     9  H          0.09100000       0.27700000       0.84400000
    10  H          0.90900000       0.22300000       0.34400000
    11  H          0.59100000       0.72300000       0.65600000
    12  H          0.40900000       0.77700000       0.15600000
    13  H          0.90900000       0.72300000       0.15600000
    14  H          0.09100000       0.77700000       0.65600000
    15  H          0.40900000       0.27700000       0.34400000
    16  H          0.59100000       0.22300000       0.84400000
    17  O          0.15613000      -0.00540000       0.76776000
    18  O          0.84387000       0.50540000       0.26776000
    19  O          0.65613000       0.00540000       0.73224000
    20  O          0.34387000       0.49460000       0.23224000
    21  O          0.84387000       0.00540000       0.23224000
    22  O          0.15613000       0.49460000       0.73224000
    23  O          0.34387000      -0.00540000       0.26776000
    24  O          0.65613000       0.50540000       0.76776000
    25  O          0.02909000       0.21693000       0.95672000
    26  O          0.97091000       0.28307000       0.45672000
    27  O          0.52909000       0.78307000       0.54328000
    28  O          0.47091000       0.71693000       0.04328000
    29  O          0.97091000       0.78307000       0.04328000
    30  O          0.02909000       0.71693000       0.54328000
    31  O          0.47091000       0.21693000       0.45672000
    32  O          0.52909000       0.28307000       0.95672000
