data_OXAMID04
_symmetry_space_group_name_H-M    'P1'
_symmetry_Int_Tables_number       1
loop_
_symmetry_equiv_pos_site_id
_symmetry_equiv_pos_as_xyz
1 x,y,z
_cell_length_a                   3.55927
_cell_length_b                   4.86851
_cell_length_c                   5.29341
_cell_angle_alpha                90.8422
_cell_angle_beta                 103.4722
_cell_angle_gamma                106.0752
loop_
_atom_site_label
_atom_site_type_symbol
_atom_site_fract_x
_atom_site_fract_y
_atom_site_fract_z
     1  C          0.14203000       0.50735190       0.63607170
     2  C          0.85797000       0.49264810       0.36392830
     3  H          0.83550000       0.13530000       0.69130000
     4  H          0.16450000       0.86470000       0.30870000
     5  N          0.04282000       0.27681170       0.76303160
     6  N         -0.04282000       0.72318830       0.23696840
     7  O          0.43442000       0.72197140       0.71779130
     8  O          0.56558000       0.27802860       0.28220870
     9  H          0.20550000       0.27330000       0.92230000
    10  H          0.79450000       0.72670000       0.07770000
