data_PERCUM
_symmetry_space_group_name_H-M    'P1'
_symmetry_Int_Tables_number       1
loop_
_symmetry_equiv_pos_site_id
_symmetry_equiv_pos_as_xyz
1 x,y,z
_cell_length_a                   7.79835
_cell_length_b                   5.23943
_cell_length_c                   13.28128
_cell_angle_alpha                90.0
_cell_angle_beta                 101.6253
_cell_angle_gamma                90.0
loop_
_atom_site_label
_atom_site_type_symbol
_atom_site_fract_x
_atom_site_fract_y
_atom_site_fract_z
     1  C          0.62313000       0.32515000       0.05202190
     2  C          0.87687000       0.82515000       0.44797810
     3  C          0.37687000       0.67485000       0.94797810
     4  C          0.12313000       0.17485000       0.55202190
     5  C          0.65913000       0.47505000       0.97288000
     6  C          0.84087000      -0.02495000       0.52712000
     7  C          0.34087000       0.52495000       0.02712000
     8  C          0.15913000       0.02495000       0.47288000
     9  C          0.46123000       0.35125000       0.07961190
    10  C          0.03877000       0.85125000       0.42038810
    11  C          0.53877000       0.64875000       0.92038810
    12  C          0.96123000       0.14875000       0.57961190
    13  F          0.81512000       0.45433000       0.94596870
    14  F          0.68488000       0.95433000       0.55403130
    15  F          0.18488000       0.54567000       0.05403130
    16  F          0.31512000       0.04567000       0.44596870
    17  I          0.81582200       0.07115300       0.12441514
    18  I          0.68417800       0.57115300       0.37558486
    19  I          0.18417800       0.92884700       0.87558486
    20  I          0.31582200       0.42884700       0.62441514
    21  I          0.38524200       0.12845300       0.19345513
    22  I          0.11475800       0.62845300       0.30654487
    23  I          0.61475800       0.87154700       0.80654487
    24  I          0.88524200       0.37154700       0.69345513
