data_PERYTO03
_symmetry_space_group_name_H-M    'P1'
_symmetry_Int_Tables_number       1
loop_
_symmetry_equiv_pos_site_id
_symmetry_equiv_pos_as_xyz
1 x,y,z
_cell_length_a                   6.0832
_cell_length_b                   6.0832
_cell_length_c                   8.7262
_cell_angle_alpha                90.0
_cell_angle_beta                 90.0
_cell_angle_gamma                90.0
loop_
_atom_site_label
_atom_site_type_symbol
_atom_site_fract_x
_atom_site_fract_y
_atom_site_fract_z
     1  C         -0.00000000      -0.00000000       0.00000000
     2  C          0.50000000       0.50000000       0.50000000
     3  C          0.16070000       0.12310000       0.11080000
     4  C          0.66070000       0.62310000       0.61080000
     5  C          0.87690000       0.16070000       0.88920000
     6  C          0.37690000       0.66070000       0.38920000
     7  C          0.83930000       0.87690000       0.11080000
     8  C          0.33930000       0.37690000       0.61080000
     9  C          0.12310000       0.83930000       0.88920000
    10  C          0.62310000       0.33930000       0.38920000
    11  O          0.31940000       0.24620000       0.02140000
    12  O          0.81940000       0.74620000       0.52140000
    13  O          0.75380000       0.31940000       0.97860000
    14  O          0.25380000       0.81940000       0.47860000
    15  O          0.68060000       0.75380000       0.02140000
    16  O          0.18060000       0.25380000       0.52140000
    17  O          0.24620000       0.68060000       0.97860000
    18  O          0.74620000       0.18060000       0.47860000
    19  H          0.24000000       0.01000000       0.16000000
    20  H          0.74000000       0.51000000       0.66000000
    21  H         -0.01000000       0.24000000       0.84000000
    22  H          0.49000000       0.74000000       0.34000000
    23  H          0.76000000      -0.01000000       0.16000000
    24  H          0.26000000       0.49000000       0.66000000
    25  H          0.01000000       0.76000000       0.84000000
    26  H          0.51000000       0.26000000       0.34000000
    27  H          0.07000000       0.25000000       0.18000000
    28  H          0.57000000       0.75000000       0.68000000
    29  H          0.75000000       0.07000000       0.82000000
    30  H          0.25000000       0.57000000       0.32000000
    31  H          0.93000000       0.75000000       0.18000000
    32  H          0.43000000       0.25000000       0.68000000
    33  H          0.25000000       0.93000000       0.82000000
    34  H          0.75000000       0.43000000       0.32000000
    35  H          0.27000000       0.39000000       0.00000000
    36  H          0.77000000       0.89000000       0.50000000
    37  H          0.61000000       0.27000000       0.00000000
    38  H          0.11000000       0.77000000       0.50000000
    39  H          0.73000000       0.61000000       0.00000000
    40  H          0.23000000       0.11000000       0.50000000
    41  H          0.39000000       0.73000000       0.00000000
    42  H          0.89000000       0.23000000       0.50000000
