data_PFTEBZ
_symmetry_space_group_name_H-M    'P1'
_symmetry_Int_Tables_number       1
loop_
_symmetry_equiv_pos_site_id
_symmetry_equiv_pos_as_xyz
1 x,y,z
_cell_length_a                   8.9773
_cell_length_b                   8.9773
_cell_length_c                   8.7574
_cell_angle_alpha                90.0
_cell_angle_beta                 90.0
_cell_angle_gamma                120.0
loop_
_atom_site_label
_atom_site_type_symbol
_atom_site_fract_x
_atom_site_fract_y
_atom_site_fract_z
     1  C          0.50690000       0.78610000       0.25000000
     2  C          0.21390000       0.72080000       0.25000000
     3  C          0.27920000       0.49310000       0.25000000
     4  C          0.49310000       0.21390000       0.75000000
     5  C          0.78610000       0.27920000       0.75000000
     6  C          0.72080000       0.50690000       0.75000000
     7  C          0.38850000       0.84190000       0.25000000
     8  C          0.15810000       0.54660000       0.25000000
     9  C          0.45340000       0.61150000       0.25000000
    10  C          0.61150000       0.15810000       0.75000000
    11  C          0.84190000       0.45340000       0.75000000
    12  C          0.54660000       0.38850000       0.75000000
    13  C          0.52250000       0.02910000       0.25000000
    14  C          0.97090000       0.49340000       0.25000000
    15  C          0.50660000       0.47750000       0.25000000
    16  C          0.47750000       0.97090000       0.75000000
    17  C          0.02910000       0.50660000       0.75000000
    18  C          0.49340000       0.52250000       0.75000000
    19  C          0.65930000       0.96520000       0.25000000
    20  C          0.03480000       0.69410000       0.25000000
    21  C          0.30590000       0.34070000       0.25000000
    22  C          0.34070000       0.03480000       0.75000000
    23  C          0.96520000       0.30590000       0.75000000
    24  C          0.69410000       0.65930000       0.75000000
    25  F          0.52730000       0.11930000       0.37310000
    26  F          0.88070000       0.40800000       0.37310000
    27  F          0.59200000       0.47270000       0.37310000
    28  F          0.47270000       0.88070000       0.87310000
    29  F          0.11930000       0.59200000       0.87310000
    30  F          0.40800000       0.52730000       0.87310000
    31  F          0.47270000       0.88070000       0.62690000
    32  F          0.11930000       0.59200000       0.62690000
    33  F          0.40800000       0.52730000       0.62690000
    34  F          0.52730000       0.11930000       0.12690000
    35  F          0.88070000       0.40800000       0.12690000
    36  F          0.59200000       0.47270000       0.12690000
    37  F          0.75990000       0.01530000       0.37360000
    38  F         -0.01530000       0.74460000       0.37360000
    39  F          0.25540000       0.24010000       0.37360000
    40  F          0.24010000      -0.01530000       0.87360000
    41  F          0.01530000       0.25540000       0.87360000
    42  F          0.74460000       0.75990000       0.87360000
    43  F          0.24010000      -0.01530000       0.62640000
    44  F          0.01530000       0.25540000       0.62640000
    45  F          0.74460000       0.75990000       0.62640000
    46  F          0.75990000       0.01530000       0.12640000
    47  F         -0.01530000       0.74460000       0.12640000
    48  F          0.25540000       0.24010000       0.12640000
