
#######################################################################
#
#                 Cambridge Crystallographic Data Centre
#                                CCDC 
#
#######################################################################
#
# If this CIF has been generated from an entry in the Cambridge 
# Structural Database, then it will include bibliographic, chemical, 
# crystal, experimental, refinement or atomic coordinate data resulting 
# from the CCDC's data processing and validation procedures.
#
#######################################################################

data_PFTENT02
_chemical_formula_moiety         'C8 F4 N2'
_chemical_name_systematic        Tetrafluoro-terephthalonitrile
_symmetry_cell_setting           orthorhombic
_symmetry_space_group_name_H-M   'C m c e'
_symmetry_Int_Tables_number      64
_space_group_name_Hall           '-C 2ac 2'
loop_
_symmetry_equiv_pos_site_id
_symmetry_equiv_pos_as_xyz
1 x,y,z
2 1/2+x,1/2+y,z
3 -x,1/2-y,1/2+z
4 1/2-x,-y,1/2+z
5 x,-y,-z
6 1/2+x,1/2-y,-z
7 -x,1/2+y,1/2-z
8 1/2-x,y,1/2-z
9 -x,-y,-z
10 1/2-x,1/2-y,-z
11 x,1/2+y,1/2-z
12 1/2+x,y,1/2-z
13 -x,y,z
14 1/2-x,1/2+y,z
15 x,1/2-y,1/2+z
16 1/2+x,-y,1/2+z
_cell_length_a                   7.6848(4)
_cell_length_b                   9.7350(6)
_cell_length_c                   9.5549(7)
_cell_angle_alpha                90
_cell_angle_beta                 90
_cell_angle_gamma                90
_cell_volume                     714.817
_cell_formula_units_Z            4
loop_
_atom_site_label
_atom_site_type_symbol
_atom_site_fract_x
_atom_site_fract_y
_atom_site_fract_z
C1 C 0.15652(3) 0.05912(2) 0.04020(1)
C2 C 0.00000 0.11982(2) 0.08086(2)
C3 C 0.00000 0.24203(4) 0.16327(3)
F1 F 0.30591(5) 0.11510(2) 0.07925(2)
N1 N 0.00000 0.34126(7) 0.22944(5)
C1D C 0.15652(3) -0.05912(2) -0.04020(1)
C1L C -0.15652(3) 0.05912(2) 0.04020(1)
C2H C 0.00000 -0.11982(2) -0.08086(2)
F1D F 0.30591(5) -0.11510(2) -0.07925(2)
C1H C -0.15652(3) -0.05912(2) -0.04020(1)
F1L F -0.30591(5) 0.11510(2) 0.07925(2)
C3H C 0.00000 -0.24203(4) -0.16327(3)
F1H F -0.30591(5) -0.11510(2) -0.07925(2)
N1H N 0.00000 -0.34126(7) -0.22944(5)
loop_
_geom_bond_atom_site_label_1
_geom_bond_atom_site_label_2
_geom_bond_site_symmetry_1
_geom_bond_site_symmetry_2
C1 C2 1_555 1_555
C2 C3 1_555 1_555
C3 N1 1_555 1_555
F1 C1 1_555 1_555
C1D C1 1_555 1_555
C1L C2 1_555 1_555
C2H C1D 1_555 1_555
F1D C1D 1_555 1_555
C1H C1L 1_555 1_555
F1L C1L 1_555 1_555
C3H C2H 1_555 1_555
F1H C1H 1_555 1_555
N1H C3H 1_555 1_555
C2H C1H 1_555 1_555

#END
