data_PIJBIT
_symmetry_space_group_name_H-M    'P1'
_symmetry_Int_Tables_number       1
loop_
_symmetry_equiv_pos_site_id
_symmetry_equiv_pos_as_xyz
1 x,y,z
_cell_length_a                   7.4072
_cell_length_b                   7.7142
_cell_length_c                   7.9422
_cell_angle_alpha                90.0
_cell_angle_beta                 97.122
_cell_angle_gamma                90.0
loop_
_atom_site_label
_atom_site_type_symbol
_atom_site_fract_x
_atom_site_fract_y
_atom_site_fract_z
     1  Cl         0.59282000       0.72682000       0.21672000
     2  Cl         0.40718000       0.22682000       0.28328000
     3  Cl         0.40718000       0.27318000       0.78328000
     4  Cl         0.59282000       0.77318000       0.71672000
     5  Cl         0.81002000       0.11762000       0.06062000
     6  Cl         0.18998000       0.61762000       0.43938000
     7  Cl         0.18998000       0.88238000       0.93938000
     8  Cl         0.81002000       0.38238000       0.56062000
     9  N          0.88727000       0.69216000       0.07685000
    10  N          0.11273000       0.19216000       0.42315000
    11  N          0.11273000       0.30784000       0.92315000
    12  N          0.88727000       0.80784000       0.57685000
    13  N          0.72176000       0.43497000       0.12615000
    14  N          0.27824000       0.93497000       0.37385000
    15  N          0.27824000       0.56503000       0.87385000
    16  N          0.72176000       0.06503000       0.62615000
    17  C          0.75377000       0.60688000       0.13046000
    18  C          0.24623000       0.10688000       0.36954000
    19  C          0.24623000       0.39312000       0.86954000
    20  C          0.75377000       0.89312000       0.63046000
    21  C          0.83988000       0.33818000       0.06226000
    22  C          0.16012000       0.83818000       0.43774000
    23  C          0.16012000       0.66182000       0.93774000
    24  C          0.83988000       0.16182000       0.56226000
    25  C          0.00898000       0.58947000       0.00577000
    26  C         -0.00898000       0.08947000       0.49423000
    27  C         -0.00898000       0.41053000      -0.00577000
    28  C          0.00898000       0.91053000       0.50577000
