data_PILVIR
_symmetry_space_group_name_H-M    'P1'
_symmetry_Int_Tables_number       1
loop_
_symmetry_equiv_pos_site_id
_symmetry_equiv_pos_as_xyz
1 x,y,z
_cell_length_a                   5.32892
_cell_length_b                   5.91502
_cell_length_c                   14.25816
_cell_angle_alpha                90.0
_cell_angle_beta                 90.0
_cell_angle_gamma                90.0
loop_
_atom_site_label
_atom_site_type_symbol
_atom_site_fract_x
_atom_site_fract_y
_atom_site_fract_z
     1  Cl         0.35656500       0.08850500       0.06409200
     2  Cl         0.14343500       0.91149500       0.56409200
     3  Cl         0.64343500       0.58850500       0.43590800
     4  Cl         0.85656500       0.41149500       0.93590800
     5  C          0.45006190       0.81685170       0.09698700
     6  C          0.04993810       0.18314830       0.59698700
     7  C          0.54993810       0.31685170       0.40301300
     8  C          0.95006190       0.68314830       0.90301300
     9  O          0.33727160       0.65137140       0.07954600
    10  O          0.16272840       0.34862860       0.57954600
    11  O          0.66272840       0.15137140       0.42045400
    12  O          0.83727160       0.84862860       0.92045400
    13  S          0.73671500       0.84346400       0.16030818
    14  S          0.76328500       0.15653600       0.66030818
    15  S          0.26328500       0.34346400       0.33969182
    16  S          0.23671500       0.65653600       0.83969182
    17  C          0.78112000       0.56474180       0.18299700
    18  C          0.71888000       0.43525820       0.68299700
    19  C          0.21888000       0.06474180       0.31700300
    20  C          0.28112000       0.93525820       0.81700300
    21  N          0.82052000       0.37968170       0.20173700
    22  N          0.67948000       0.62031830       0.70173700
    23  N          0.17948000       0.87968170       0.29826300
    24  N          0.32052000       0.12031830       0.79826300
