data_POJNUX
_symmetry_space_group_name_H-M    'P1'
_symmetry_Int_Tables_number       1
loop_
_symmetry_equiv_pos_site_id
_symmetry_equiv_pos_as_xyz
1 x,y,z
_cell_length_a                   15.5691
_cell_length_b                   7.39904
_cell_length_c                   3.94053
_cell_angle_alpha                90.0
_cell_angle_beta                 90.1924
_cell_angle_gamma                90.0
loop_
_atom_site_label
_atom_site_type_symbol
_atom_site_fract_x
_atom_site_fract_y
_atom_site_fract_z
     1  Br         0.18653200       0.16149600       0.72169000
     2  Br         0.31346800       0.66149600       0.77831000
     3  Br         0.81346800       0.83850400       0.27831000
     4  Br         0.68653200       0.33850400       0.22169000
     5  S          0.89956400       0.38691000       0.71257000
     6  S          0.60043600       0.88691000       0.78743000
     7  S          0.10043600       0.61309000       0.28743000
     8  S          0.39956400       0.11309000       0.21257000
     9  N          0.85878000       0.21584000       0.90090000
    10  N          0.64122000       0.71584000       0.59910000
    11  N          0.14122000       0.78416000       0.09910000
    12  N          0.35878000       0.28416000       0.40090000
    13  N         -0.00112000       0.33124000       0.68890000
    14  N          0.50112000       0.83124000       0.81110000
    15  N          0.00112000       0.66876000       0.31110000
    16  N          0.49888000       0.16876000       0.18890000
    17  C          0.00582000       0.16735000       0.83890000
    18  C          0.49418000       0.66735000       0.66110000
    19  C         -0.00582000       0.83265000       0.16110000
    20  C          0.50582000       0.33265000       0.33890000
    21  C          0.08192000       0.06885000       0.87790000
    22  C          0.41808000       0.56885000       0.62210000
    23  C          0.91808000       0.93115000       0.12210000
    24  C          0.58192000       0.43115000       0.37790000
    25  C          0.07602000       0.90135000       0.03710000
    26  C          0.42398000       0.40135000       0.46290000
    27  C          0.92398000       0.09865000       0.96290000
    28  C          0.57602000       0.59865000       0.53710000
