data_PYRAZI
_symmetry_space_group_name_H-M    'P1'
_symmetry_Int_Tables_number       1
loop_
_symmetry_equiv_pos_site_id
_symmetry_equiv_pos_as_xyz
1 x,y,z
_cell_length_a                   9.3163
_cell_length_b                   3.8155
_cell_length_c                   5.9113
_cell_angle_alpha                90.0
_cell_angle_beta                 90.0
_cell_angle_gamma                90.0
loop_
_atom_site_label
_atom_site_type_symbol
_atom_site_fract_x
_atom_site_fract_y
_atom_site_fract_z
     1  N          0.14850000      -0.00000000       0.00000000
     2  N          0.35150000       0.50000000       0.50000000
     3  N          0.85150000       0.00000000       0.00000000
     4  N          0.64850000       0.50000000       0.50000000
     5  C          0.07280000       0.11130000       0.17330000
     6  C          0.42720000       0.38870000       0.67330000
     7  C          0.07280000       0.88870000       0.82670000
     8  C          0.42720000       0.61130000       0.32670000
     9  C          0.92720000       0.88870000       0.82670000
    10  C          0.57280000       0.61130000       0.32670000
    11  C          0.92720000       0.11130000       0.17330000
    12  C          0.57280000       0.38870000       0.67330000
    13  H          0.13000000       0.19200000       0.31700000
    14  H          0.37000000       0.30800000       0.81700000
    15  H          0.13000000       0.80800000       0.68300000
    16  H          0.37000000       0.69200000       0.18300000
    17  H          0.87000000       0.80800000       0.68300000
    18  H          0.63000000       0.69200000       0.18300000
    19  H          0.87000000       0.19200000       0.31700000
    20  H          0.63000000       0.30800000       0.81700000
