data_QALVAE
_symmetry_space_group_name_H-M    'P1'
_symmetry_Int_Tables_number       1
loop_
_symmetry_equiv_pos_site_id
_symmetry_equiv_pos_as_xyz
1 x,y,z
_cell_length_a                   9.1029512
_cell_length_b                   9.1029512
_cell_length_c                   9.1029512
_cell_angle_alpha                90.0
_cell_angle_beta                 90.0
_cell_angle_gamma                90.0
loop_
_atom_site_label
_atom_site_type_symbol
_atom_site_fract_x
_atom_site_fract_y
_atom_site_fract_z
     1  N          0.25000000       0.25000000       0.25000000
     2  N          0.25000000       0.75000000       0.25000000
     3  N          0.25000000       0.25000000       0.75000000
     4  N          0.75000000       0.25000000       0.25000000
     5  N          0.75000000       0.75000000       0.25000000
     6  N          0.25000000       0.75000000       0.75000000
     7  N          0.75000000       0.25000000       0.75000000
     8  N          0.75000000       0.75000000       0.75000000
     9  H          0.31462000       0.18542000       0.18542000
    10  H          0.31462000       0.81458000       0.18542000
    11  H          0.31462000       0.18542000       0.81458000
    12  H          0.18542000       0.18542000       0.68538000
    13  H          0.81458000       0.18542000       0.31462000
    14  H          0.81458000       0.31462000       0.18542000
    15  H          0.18542000       0.68538000       0.18542000
    16  H          0.18542000       0.31462000       0.18542000
    17  H          0.18542000       0.18542000       0.31462000
    18  H          0.81458000       0.81458000       0.31462000
    19  H          0.18542000       0.68538000       0.81458000
    20  H          0.81458000       0.18542000       0.68538000
    21  H          0.81458000       0.68538000       0.18542000
    22  H          0.81458000       0.31462000       0.81458000
    23  H          0.18542000       0.81458000       0.68538000
    24  H          0.31462000       0.81458000       0.81458000
    25  H          0.68538000       0.18542000       0.81458000
    26  H          0.68538000       0.81458000       0.18542000
    27  H          0.18542000       0.31462000       0.81458000
    28  H          0.81458000       0.68538000       0.81458000
    29  H          0.18542000       0.81458000       0.31462000
    30  H          0.81458000       0.81458000       0.68538000
    31  H          0.68538000       0.18542000       0.18542000
    32  H          0.68538000       0.81458000       0.81458000
    33  H          0.31462000       0.68542000       0.68542000
    34  H          0.31462000       0.31458000       0.68542000
    35  H          0.31462000       0.68542000       0.31458000
    36  H          0.31462000       0.31458000       0.31458000
    37  H          0.68538000       0.68542000       0.31458000
    38  H          0.68538000       0.31458000       0.68542000
    39  H          0.68538000       0.68542000       0.68542000
    40  H          0.68538000       0.31458000       0.31458000
    41  B          0.36526813       0.50000000       0.50000000
    42  B          0.50000000       0.50000000       0.63473187
    43  B          0.50000000       0.50000000       0.36526813
    44  B          0.50000000       0.36526813       0.50000000
    45  B          0.50000000       0.63473187       0.50000000
    46  B          0.63473187       0.50000000       0.50000000
    47  B          0.36526813      -0.00000000       0.00000000
    48  B          0.50000000       0.00000000       0.13473187
    49  B          0.50000000      -0.00000000       0.86526813
    50  B          0.50000000       0.86526813       0.00000000
    51  B          0.50000000       0.13473187       0.00000000
    52  B          0.63473187       0.00000000       0.00000000
    53  B          0.86526813       0.50000000       0.00000000
    54  B         -0.00000000       0.50000000       0.13473187
    55  B          0.00000000       0.50000000       0.86526813
    56  B          0.00000000       0.36526813       0.00000000
    57  B         -0.00000000       0.63473187       0.00000000
    58  B          0.13473187       0.50000000       0.00000000
    59  B          0.86526813      -0.00000000       0.50000000
    60  B         -0.00000000      -0.00000000       0.63473187
    61  B          0.00000000      -0.00000000       0.36526813
    62  B          0.00000000       0.86526813       0.50000000
    63  B         -0.00000000       0.13473187       0.50000000
    64  B          0.13473187      -0.00000000       0.50000000
    65  H          0.23324000       0.50000000       0.50000000
    66  H          0.50000000       0.50000000       0.76676000
    67  H          0.50000000       0.50000000       0.23324000
    68  H          0.50000000       0.23324000       0.50000000
    69  H          0.50000000       0.76676000       0.50000000
    70  H          0.76676000       0.50000000       0.50000000
    71  H          0.23324000      -0.00000000       0.00000000
    72  H          0.50000000      -0.00000000       0.26676000
    73  H          0.50000000      -0.00000000       0.73324000
    74  H          0.50000000       0.73324000       0.00000000
    75  H          0.50000000       0.26676000       0.00000000
    76  H          0.76676000       0.00000000       0.00000000
    77  H          0.73324000       0.50000000       0.00000000
    78  H         -0.00000000       0.50000000       0.26676000
    79  H          0.00000000       0.50000000       0.73324000
    80  H          0.00000000       0.23324000       0.00000000
    81  H         -0.00000000       0.76676000       0.00000000
    82  H          0.26676000       0.50000000       0.00000000
    83  H          0.73324000      -0.00000000       0.50000000
    84  H         -0.00000000      -0.00000000       0.76676000
    85  H          0.00000000      -0.00000000       0.23324000
    86  H          0.00000000       0.73324000       0.50000000
    87  H         -0.00000000       0.26676000       0.50000000
    88  H          0.26676000      -0.00000000       0.50000000
