data_QAMCAM
_symmetry_space_group_name_H-M    'P1'
_symmetry_Int_Tables_number       1
loop_
_symmetry_equiv_pos_site_id
_symmetry_equiv_pos_as_xyz
1 x,y,z
_cell_length_a                   7.03194
_cell_length_b                   7.03194
_cell_length_c                   7.03194
_cell_angle_alpha                90.0
_cell_angle_beta                 90.0
_cell_angle_gamma                90.0
loop_
_atom_site_label
_atom_site_type_symbol
_atom_site_fract_x
_atom_site_fract_y
_atom_site_fract_z
     1  N          0.12193000       0.12193000       0.12193000
     2  N          0.87807000       0.87807000       0.12193000
     3  N          0.87807000       0.12193000       0.87807000
     4  N          0.12193000       0.87807000       0.87807000
     5  N          0.62193000       0.62193000       0.62193000
     6  N          0.37807000       0.37807000       0.62193000
     7  N          0.37807000       0.62193000       0.37807000
     8  N          0.62193000       0.37807000       0.37807000
     9  C          0.23706000       0.00000000       0.00000000
    10  C          0.76294000       0.00000000       0.00000000
    11  C          0.00000000       0.23706000       0.00000000
    12  C          0.00000000       0.76294000       0.00000000
    13  C          0.00000000      -0.00000000       0.23706000
    14  C          0.00000000      -0.00000000       0.76294000
    15  C          0.73706000       0.50000000       0.50000000
    16  C          0.26294000       0.50000000       0.50000000
    17  C          0.50000000       0.73706000       0.50000000
    18  C          0.50000000       0.26294000       0.50000000
    19  C          0.50000000       0.50000000       0.73706000
    20  C          0.50000000       0.50000000       0.26294000
    21  H          0.31825900       0.92116900       0.07883200
    22  H          0.68174100       0.07883100       0.07883200
    23  H          0.68174100       0.92116900       0.92116800
    24  H          0.31825900       0.07883100       0.92116800
    25  H          0.07883200       0.31825900       0.92116900
    26  H          0.07883200       0.68174100       0.07883100
    27  H          0.92116800       0.68174100       0.92116900
    28  H          0.92116800       0.31825900       0.07883100
    29  H          0.92116900       0.07883200       0.31825900
    30  H          0.07883100       0.07883200       0.68174100
    31  H          0.92116900       0.92116800       0.68174100
    32  H          0.07883100       0.92116800       0.31825900
    33  H          0.81825900       0.42116900       0.57883200
    34  H          0.18174100       0.57883100       0.57883200
    35  H          0.18174100       0.42116900       0.42116800
    36  H          0.81825900       0.57883100       0.42116800
    37  H          0.57883200       0.81825900       0.42116900
    38  H          0.57883200       0.18174100       0.57883100
    39  H          0.42116800       0.18174100       0.42116900
    40  H          0.42116800       0.81825900       0.57883100
    41  H          0.42116900       0.57883200       0.81825900
    42  H          0.57883100       0.57883200       0.18174100
    43  H          0.42116900       0.42116800       0.18174100
    44  H          0.57883100       0.42116800       0.81825900
