data_QAMCAM33
_symmetry_space_group_name_H-M    'P1'
_symmetry_Int_Tables_number       1
loop_
_symmetry_equiv_pos_site_id
_symmetry_equiv_pos_as_xyz
1 x,y,z
_cell_length_a                   6.27952
_cell_length_b                   6.27952
_cell_length_c                   6.27952
_cell_angle_alpha                90.0
_cell_angle_beta                 90.0
_cell_angle_gamma                90.0
loop_
_atom_site_label
_atom_site_type_symbol
_atom_site_fract_x
_atom_site_fract_y
_atom_site_fract_z
     1  N          0.13653000       0.13653000       0.13653000
     2  N          0.86347000       0.86347000       0.13653000
     3  N          0.86347000       0.13653000       0.86347000
     4  N          0.13653000       0.86347000       0.86347000
     5  N          0.63653000       0.63653000       0.63653000
     6  N          0.36347000       0.36347000       0.63653000
     7  N          0.36347000       0.63653000       0.36347000
     8  N          0.63653000       0.36347000       0.36347000
     9  C          0.26464000       0.00000000       0.00000000
    10  C          0.73536000       0.00000000       0.00000000
    11  C          0.00000000       0.26464000       0.00000000
    12  C         -0.00000000       0.73536000      -0.00000000
    13  C          0.00000000      -0.00000000       0.26464000
    14  C         -0.00000000      -0.00000000       0.73536000
    15  C          0.76464000       0.50000000       0.50000000
    16  C          0.23536000       0.50000000       0.50000000
    17  C          0.50000000       0.76464000       0.50000000
    18  C          0.50000000       0.23536000       0.50000000
    19  C          0.50000000       0.50000000       0.76464000
    20  C          0.50000000       0.50000000       0.23536000
    21  H          0.35561600       0.08825200       0.91174800
    22  H          0.64438400       0.91174800       0.91174800
    23  H          0.64438400       0.08825200       0.08825200
    24  H          0.35561600       0.91174800       0.08825200
    25  H          0.91174800       0.35561600       0.08825200
    26  H          0.91174800       0.64438400       0.91174800
    27  H          0.08825200       0.64438400       0.08825200
    28  H          0.08825200       0.35561600       0.91174800
    29  H          0.08825200       0.91174800       0.35561600
    30  H          0.91174800       0.91174800       0.64438400
    31  H          0.08825200       0.08825200       0.64438400
    32  H          0.91174800       0.08825200       0.35561600
    33  H          0.85561600       0.58825200       0.41174800
    34  H          0.14438400       0.41174800       0.41174800
    35  H          0.14438400       0.58825200       0.58825200
    36  H          0.85561600       0.41174800       0.58825200
    37  H          0.41174800       0.85561600       0.58825200
    38  H          0.41174800       0.14438400       0.41174800
    39  H          0.58825200       0.14438400       0.58825200
    40  H          0.58825200       0.85561600       0.41174800
    41  H          0.58825200       0.41174800       0.85561600
    42  H          0.41174800       0.41174800       0.14438400
    43  H          0.58825200       0.58825200       0.14438400
    44  H          0.41174800       0.58825200       0.85561600
