data_QOBFUI
_symmetry_space_group_name_H-M    'P1'
_symmetry_Int_Tables_number       1
loop_
_symmetry_equiv_pos_site_id
_symmetry_equiv_pos_as_xyz
1 x,y,z
_cell_length_a                   3.96768
_cell_length_b                   15.2782
_cell_length_c                   7.077513
_cell_angle_alpha                90.0
_cell_angle_beta                 96.952
_cell_angle_gamma                90.0
loop_
_atom_site_label
_atom_site_type_symbol
_atom_site_fract_x
_atom_site_fract_y
_atom_site_fract_z
     1  S          0.34688180       0.14731500       0.10310110
     2  S          0.15311820       0.64731500       0.39689890
     3  S          0.65311820       0.85268500       0.89689890
     4  S          0.84688180       0.35268500       0.60310110
     5  S          0.24662170       0.96235600       0.24302100
     6  S          0.25337830       0.46235600       0.25697900
     7  S          0.75337830       0.03764400       0.75697900
     8  S          0.74662170       0.53764400       0.74302100
     9  N          0.11727000       0.11718170       0.40234000
    10  N          0.38273000       0.61718170       0.09766000
    11  N          0.88273000       0.88281830       0.59766000
    12  N          0.61727000       0.38281830       0.90234000
    13  H          0.03290000       0.09320000       0.48450000
    14  H          0.46710000       0.59320000       0.01550000
    15  H         -0.03290000       0.90680000       0.51550000
    16  H          0.53290000       0.40680000      -0.01550000
    17  N          0.12337000       0.20540160       0.38964000
    18  N          0.37663000       0.70540160       0.11036000
    19  N          0.87663000       0.79459840       0.61036000
    20  N          0.62337000       0.29459840       0.88964000
    21  N          0.23907000       0.23176150       0.24154000
    22  N          0.26093000       0.73176150       0.25846000
    23  N          0.76093000       0.76823850       0.75846000
    24  N          0.73907000       0.26823850       0.74154000
    25  C          0.22726000       0.07064170       0.26044000
    26  C          0.27274000       0.57064170       0.23956000
    27  C          0.77274000       0.92935830       0.73956000
    28  C          0.72726000       0.42935830       0.76044000
