data_QOJKEF
_symmetry_space_group_name_H-M    'P1'
_symmetry_Int_Tables_number       1
loop_
_symmetry_equiv_pos_site_id
_symmetry_equiv_pos_as_xyz
1 x,y,z
_cell_length_a                   10.1382
_cell_length_b                   9.27001
_cell_length_c                   4.36001
_cell_angle_alpha                90.0
_cell_angle_beta                 90.16
_cell_angle_gamma                90.0
loop_
_atom_site_label
_atom_site_type_symbol
_atom_site_fract_x
_atom_site_fract_y
_atom_site_fract_z
     1  I          0.37537200       0.50000000       0.39257500
     2  I          0.87537200       0.00000000       0.39257500
     3  I          0.62462800       0.50000000       0.60742500
     4  I          0.12462800       0.00000000       0.60742500
     5  O          0.11343000       0.50000000       0.18199000
     6  O          0.61343000       0.00000000       0.18199000
     7  O          0.88657000       0.50000000       0.81801000
     8  O          0.38657000       0.00000000       0.81801000
     9  C          0.07303000       0.37373000       0.02017000
    10  C          0.57303000       0.87373000       0.02017000
    11  C          0.92697000       0.37373000      -0.02017000
    12  C          0.42697000       0.87373000      -0.02017000
    13  C          0.92697000       0.62627000      -0.02017000
    14  C          0.42697000       0.12627000      -0.02017000
    15  C          0.07303000       0.62627000       0.02017000
    16  C          0.57303000       0.12627000       0.02017000
    17  H          0.10043000       0.28673000       0.13607000
    18  H          0.60043000       0.78673000       0.13607000
    19  H          0.89957000       0.28673000       0.86393000
    20  H          0.39957000       0.78673000       0.86393000
    21  H          0.89957000       0.71327000       0.86393000
    22  H          0.39957000       0.21327000       0.86393000
    23  H          0.10043000       0.71327000       0.13607000
    24  H          0.60043000       0.21327000       0.13607000
    25  H          0.11623000       0.37093000       0.81683000
    26  H          0.61623000       0.87093000       0.81683000
    27  H          0.88377000       0.37093000       0.18317000
    28  H          0.38377000       0.87093000       0.18317000
    29  H          0.88377000       0.62907000       0.18317000
    30  H          0.38377000       0.12907000       0.18317000
    31  H          0.11623000       0.62907000       0.81683000
    32  H          0.61623000       0.12907000       0.81683000
