data_QONHUX
_symmetry_space_group_name_H-M    'P1'
_symmetry_Int_Tables_number       1
loop_
_symmetry_equiv_pos_site_id
_symmetry_equiv_pos_as_xyz
1 x,y,z
_cell_length_a                   3.87497
_cell_length_b                   8.396114
_cell_length_c                   11.320819
_cell_angle_alpha                90.0
_cell_angle_beta                 94.3532
_cell_angle_gamma                90.0
loop_
_atom_site_label
_atom_site_type_symbol
_atom_site_fract_x
_atom_site_fract_y
_atom_site_fract_z
     1  Br         0.75419600       0.91353300       0.34623200
     2  Br         0.74580400       0.41353300       0.15376800
     3  Br         0.24580400       0.08646700       0.65376800
     4  Br         0.25419600       0.58646700       0.84623200
     5  S          0.72922150       0.70276700       0.57245500
     6  S          0.77077850       0.20276700       0.92754500
     7  S          0.27077850       0.29723300       0.42754500
     8  S          0.22922150       0.79723300       0.07245500
     9  N          0.48525000       0.60702000       0.36184170
    10  N          0.01475000       0.10702000       0.13815830
    11  N          0.51475000       0.39298000       0.63815830
    12  N         -0.01475000       0.89298000       0.86184170
    13  C          0.63336000       0.72513000       0.42092000
    14  C          0.86664000       0.22513000       0.07908000
    15  C          0.36664000       0.27487000       0.57908000
    16  C          0.13336000       0.77487000       0.92092000
    17  C          0.55666000       0.51313000       0.55768190
    18  C          0.94334000       0.01313000       0.94231810
    19  C          0.44334000       0.48687000       0.44231810
    20  C          0.05666000      -0.01313000       0.05768190
