data_QQQCIV01
_symmetry_space_group_name_H-M    'P1'
_symmetry_Int_Tables_number       1
loop_
_symmetry_equiv_pos_site_id
_symmetry_equiv_pos_as_xyz
1 x,y,z
_cell_length_a                   4.111
_cell_length_b                   8.271
_cell_length_c                   7.981
_cell_angle_alpha                90.0
_cell_angle_beta                 100.42
_cell_angle_gamma                90.0
loop_
_atom_site_label
_atom_site_type_symbol
_atom_site_fract_x
_atom_site_fract_y
_atom_site_fract_z
     1  C          0.09510000       0.45780000       0.24900000
     2  C          0.90490000       0.95780000       0.25100000
     3  C          0.90490000       0.54220000       0.75100000
     4  C          0.09510000       0.04220000       0.74900000
     5  C          0.29710000       0.35040000       0.36700000
     6  C          0.70290000       0.85040000       0.13300000
     7  C          0.70290000       0.64960000       0.63300000
     8  C          0.29710000       0.14960000       0.86700000
     9  N          0.45440000       0.26640000       0.46030000
    10  N          0.54560000       0.76640000       0.03970000
    11  N          0.54560000       0.73360000       0.53970000
    12  N          0.45440000       0.23360000       0.96030000
    13  H          0.93100000       0.40100000       0.16300000
    14  H          0.06900000       0.90100000       0.33700000
    15  H          0.06900000       0.59900000       0.83700000
    16  H          0.93100000       0.09900000       0.66300000
    17  H          0.22100000       0.51000000       0.18000000
    18  H          0.77900000       0.01000000       0.32000000
    19  H          0.77900000       0.49000000       0.82000000
    20  H          0.22100000      -0.01000000       0.68000000
    21  H         -0.01300000       0.53900000       0.30800000
    22  H          0.01300000       0.03900000       0.19200000
    23  H          0.01300000       0.46100000       0.69200000
    24  H         -0.01300000       0.96100000       0.80800000
