data_QQQCIV04
_symmetry_space_group_name_H-M    'P1'
_symmetry_Int_Tables_number       1
loop_
_symmetry_equiv_pos_site_id
_symmetry_equiv_pos_as_xyz
1 x,y,z
_cell_length_a                   6.18701
_cell_length_b                   5.2823
_cell_length_c                   7.8874
_cell_angle_alpha                90.0
_cell_angle_beta                 90.0
_cell_angle_gamma                90.0
loop_
_atom_site_label
_atom_site_type_symbol
_atom_site_fract_x
_atom_site_fract_y
_atom_site_fract_z
     1  N         -0.00000000       0.43801400       0.90258200
     2  N          0.00000000       0.56198600       0.40258200
     3  N          0.50000000       0.93801400       0.90258200
     4  N          0.50000000       0.06198600       0.40258200
     5  C         -0.00000000       0.07761500       0.12431800
     6  C          0.00000000       0.92238500       0.62431800
     7  C          0.50000000       0.57761500       0.12431800
     8  C          0.50000000       0.42238500       0.62431800
     9  C         -0.00000000       0.27621600       0.00000000
    10  C         -0.00000000       0.72378400       0.50000000
    11  C          0.50000000       0.77621600       0.00000000
    12  C          0.50000000       0.22378400       0.50000000
    13  H          0.00000000       0.89585000       0.08012000
    14  H         -0.00000000       0.10415000       0.58012000
    15  H          0.50000000       0.39585000       0.08012000
    16  H          0.50000000       0.60415000       0.58012000
    17  H          0.14911000       0.08790000       0.20180000
    18  H          0.85089000       0.91210000       0.70180000
    19  H          0.85089000       0.08790000       0.20180000
    20  H          0.14911000       0.91210000       0.70180000
    21  H          0.64911000       0.58790000       0.20180000
    22  H          0.35089000       0.41210000       0.70180000
    23  H          0.35089000       0.58790000       0.20180000
    24  H          0.64911000       0.41210000       0.70180000
