data_QQQECG01
_symmetry_space_group_name_H-M    'P1'
_symmetry_Int_Tables_number       1
loop_
_symmetry_equiv_pos_site_id
_symmetry_equiv_pos_as_xyz
1 x,y,z
_cell_length_a                   9.9042
_cell_length_b                   9.2342
_cell_length_c                   5.7352
_cell_angle_alpha                90.0
_cell_angle_beta                 92.7215
_cell_angle_gamma                90.0
loop_
_atom_site_label
_atom_site_type_symbol
_atom_site_fract_x
_atom_site_fract_y
_atom_site_fract_z
     1  Cl         0.11191000       0.21031000       0.20681000
     2  Cl         0.61191000       0.71031000       0.20681000
     3  Cl         0.88809000       0.21031000       0.79319000
     4  Cl         0.38809000       0.71031000       0.79319000
     5  Cl         0.88809000       0.78969000       0.79319000
     6  Cl         0.38809000       0.28969000       0.79319000
     7  Cl         0.11191000       0.78969000       0.20681000
     8  Cl         0.61191000       0.28969000       0.20681000
     9  O          0.16742000       0.50000000       0.56093000
    10  O          0.66742000      -0.00000000       0.56093000
    11  O          0.83258000       0.50000000       0.43907000
    12  O          0.33258000       0.00000000       0.43907000
    13  O          0.32042000       0.50000000       0.30864000
    14  O          0.82042000      -0.00000000       0.30864000
    15  O          0.67958000       0.50000000       0.69136000
    16  O          0.17958000      -0.00000000       0.69136000
    17  N          0.20382000       0.50000000       0.36233000
    18  N          0.70382000      -0.00000000       0.36233000
    19  N          0.79618000       0.50000000       0.63767000
    20  N          0.29618000      -0.00000000       0.63767000
    21  C          0.05021000       0.36841000       0.08912000
    22  C          0.55021000       0.86841000       0.08912000
    23  C          0.94979000       0.36841000       0.91088000
    24  C          0.44979000       0.86841000       0.91088000
    25  C          0.94979000       0.63159000       0.91088000
    26  C          0.44979000       0.13159000       0.91088000
    27  C          0.05021000       0.63159000       0.08912000
    28  C          0.55021000       0.13159000       0.08912000
    29  C          0.09812000       0.50000000       0.17233000
    30  C          0.59812000      -0.00000000       0.17233000
    31  C          0.90188000       0.50000000       0.82767000
    32  C          0.40188000      -0.00000000       0.82767000
