data_QUCMIL
_symmetry_space_group_name_H-M    'P1'
_symmetry_Int_Tables_number       1
loop_
_symmetry_equiv_pos_site_id
_symmetry_equiv_pos_as_xyz
1 x,y,z
_cell_length_a                   9.7062
_cell_length_b                   4.898012
_cell_length_c                   18.0085
_cell_angle_alpha                90.0
_cell_angle_beta                 100.0743
_cell_angle_gamma                90.0
loop_
_atom_site_label
_atom_site_type_symbol
_atom_site_fract_x
_atom_site_fract_y
_atom_site_fract_z
     1  S          0.58334400       0.20034800       0.72250200
     2  S          0.41665600       0.20034800       0.77749800
     3  S          0.08334400       0.70034800       0.72250200
     4  S          0.91665600       0.70034800       0.77749800
     5  S          0.41665600       0.79965200       0.27749800
     6  S          0.58334400       0.79965200       0.22250200
     7  S          0.91665600       0.29965200       0.27749800
     8  S          0.08334400       0.29965200       0.22250200
     9  S          0.37175400       0.60103100       0.63157300
    10  S          0.62824600       0.60103100       0.86842700
    11  S          0.87175400       0.10103100       0.63157300
    12  S          0.12824600       0.10103100       0.86842700
    13  S          0.62824600       0.39896900       0.36842700
    14  S          0.37175400       0.39896900       0.13157300
    15  S          0.12824600       0.89896900       0.36842700
    16  S          0.87175400       0.89896900       0.13157300
    17  C          0.53518150       0.45483000       0.65306800
    18  C          0.46481850       0.45483000       0.84693200
    19  C          0.03518150       0.95483000       0.65306800
    20  C          0.96481850       0.95483000       0.84693200
    21  C          0.46481850       0.54517000       0.34693200
    22  C          0.53518150       0.54517000       0.15306800
    23  C          0.96481850       0.04517000       0.34693200
    24  C          0.03518150       0.04517000       0.15306800
    25  C          0.43894190       0.78774000       0.56554900
    26  C          0.56105810       0.78774000       0.93445100
    27  C          0.93894190       0.28774000       0.56554900
    28  C          0.06105810       0.28774000       0.93445100
    29  C          0.56105810       0.21226000       0.43445100
    30  C          0.43894190       0.21226000       0.06554900
    31  C          0.06105810       0.71226000       0.43445100
    32  C          0.93894190       0.71226000       0.06554900
    33  H          0.38580000       0.91530000       0.53470000
    34  H          0.61420000       0.91530000       0.96530000
    35  H          0.88580000       0.41530000       0.53470000
    36  H          0.11420000       0.41530000       0.96530000
    37  H          0.61420000       0.08470000       0.46530000
    38  H          0.38580000       0.08470000       0.03470000
    39  H          0.11420000       0.58470000       0.46530000
    40  H          0.88580000       0.58470000       0.03470000
    41  N          0.62594140       0.54253000       0.61357800
    42  N          0.37405860       0.54253000       0.88642200
    43  N          0.12594140       0.04253000       0.61357800
    44  N          0.87405860       0.04253000       0.88642200
    45  N          0.37405860       0.45747000       0.38642200
    46  N          0.62594140       0.45747000       0.11357800
    47  N          0.87405860       0.95747000       0.38642200
    48  N          0.12594140       0.95747000       0.11357800
    49  N          0.56803160       0.73913000       0.56152800
    50  N          0.43196840       0.73913000       0.93847200
    51  N          0.06803160       0.23913000       0.56152800
    52  N          0.93196840       0.23913000       0.93847200
    53  N          0.43196840       0.26087000       0.43847200
    54  N          0.56803160       0.26087000       0.06152800
    55  N          0.93196840       0.76087000       0.43847200
    56  N          0.06803160       0.76087000       0.06152800
