data_RACWOH
_symmetry_space_group_name_H-M    'P1'
_symmetry_Int_Tables_number       1
loop_
_symmetry_equiv_pos_site_id
_symmetry_equiv_pos_as_xyz
1 x,y,z
_cell_length_a                   5.1871
_cell_length_b                   13.2501
_cell_length_c                   14.2872
_cell_angle_alpha                90.0
_cell_angle_beta                 90.0
_cell_angle_gamma                90.0
loop_
_atom_site_label
_atom_site_type_symbol
_atom_site_fract_x
_atom_site_fract_y
_atom_site_fract_z
     1  S          0.33606000       0.54112000       0.75000000
     2  S          0.66394000       0.45888000       0.25000000
     3  S          0.83606000       0.95888000       0.25000000
     4  S          0.16394000       0.04112000       0.75000000
     5  S          0.13254000       0.48539130       0.63623130
     6  S          0.86746000       0.51460870       0.13623130
     7  S          0.63254000       0.01460870       0.36376870
     8  S          0.36746000       0.98539130       0.86376870
     9  S          0.86746000       0.51460870       0.36376870
    10  S          0.13254000       0.48539130       0.86376870
    11  S          0.36746000       0.98539130       0.63623130
    12  S          0.63254000       0.01460870       0.13623130
    13  S          0.36874000       0.39816120       0.55538120
    14  S          0.63126000       0.60183880       0.05538120
    15  S          0.86874000       0.10183880       0.44461880
    16  S          0.13126000       0.89816120       0.94461880
    17  S          0.63126000       0.60183880       0.44461880
    18  S          0.36874000       0.39816120       0.94461880
    19  S          0.13126000       0.89816120       0.55538120
    20  S          0.86874000       0.10183880       0.05538120
    21  S          0.36204000       0.25396120       0.61041120
    22  S          0.63796000       0.74603880       0.11041120
    23  S          0.86204000       0.24603880       0.38958880
    24  S          0.13796000       0.75396120       0.88958880
    25  S          0.63796000       0.74603880       0.38958880
    26  S          0.36204000       0.25396120       0.88958880
    27  S          0.13796000       0.75396120       0.61041120
    28  S          0.86204000       0.24603880       0.11041120
    29  S          0.73944000       0.22907140       0.64675120
    30  S          0.26056000       0.77092860       0.14675120
    31  S          0.23944000       0.27092860       0.35324880
    32  S          0.76056000       0.72907140       0.85324880
    33  S          0.26056000       0.77092860       0.35324880
    34  S          0.73944000       0.22907140       0.85324880
    35  S          0.76056000       0.72907140       0.64675120
    36  S          0.23944000       0.27092860       0.14675120
    37  N          0.79881700       0.28357000       0.75000000
    38  N          0.20118300       0.71643000       0.25000000
    39  N          0.29881700       0.21643000       0.25000000
    40  N          0.70118300       0.78357000       0.75000000
    41  H          0.80526000       0.34810000       0.75000000
    42  H          0.19474000       0.65190000       0.25000000
    43  H          0.30526000       0.15190000       0.25000000
    44  H          0.69474000       0.84810000       0.75000000
