data_RIKXIS
_symmetry_space_group_name_H-M    'P1'
_symmetry_Int_Tables_number       1
loop_
_symmetry_equiv_pos_site_id
_symmetry_equiv_pos_as_xyz
1 x,y,z
_cell_length_a                   11.1086
_cell_length_b                   4.6802
_cell_length_c                   14.4707
_cell_angle_alpha                90.0
_cell_angle_beta                 95.904
_cell_angle_gamma                90.0
loop_
_atom_site_label
_atom_site_type_symbol
_atom_site_fract_x
_atom_site_fract_y
_atom_site_fract_z
     1  S          0.52573000       0.17229000       0.36352000
     2  S          0.47427000       0.17229000       0.13648000
     3  S          0.02573000       0.67229000       0.36352000
     4  S          0.97427000       0.67229000       0.13648000
     5  S          0.47427000       0.82771000       0.63648000
     6  S          0.52573000       0.82771000       0.86352000
     7  S          0.97427000       0.32771000       0.63648000
     8  S          0.02573000       0.32771000       0.86352000
     9  S          0.50000000       0.91208870       0.25000000
    10  S          0.00000000       0.41208870       0.25000000
    11  S          0.50000000       0.08791130       0.75000000
    12  S         -0.00000000       0.58791130       0.75000000
    13  C          0.36994000       0.21997000       0.38792000
    14  C          0.63006000       0.21997000       0.11208000
    15  C          0.86994000       0.71997000       0.38792000
    16  C          0.13006000       0.71997000       0.11208000
    17  C          0.63006000       0.78003000       0.61208000
    18  C          0.36994000       0.78003000       0.88792000
    19  C          0.13006000       0.28003000       0.61208000
    20  C          0.86994000       0.28003000       0.88792000
    21  F          0.30333000       0.35445000       0.31993000
    22  F          0.69667000       0.35445000       0.18007000
    23  F          0.80333000       0.85445000       0.31993000
    24  F          0.19667000       0.85445000       0.18007000
    25  F          0.69667000       0.64555000       0.68007000
    26  F          0.30333000       0.64555000       0.81993000
    27  F          0.19667000       0.14555000       0.68007000
    28  F          0.80333000       0.14555000       0.81993000
    29  F          0.37152000       0.37823000       0.46483000
    30  F          0.62848000       0.37823000       0.03517000
    31  F          0.87152000       0.87823000       0.46483000
    32  F          0.12848000       0.87823000       0.03517000
    33  F          0.62848000       0.62177000       0.53517000
    34  F          0.37152000       0.62177000       0.96483000
    35  F          0.12848000       0.12177000       0.53517000
    36  F          0.87152000       0.12177000       0.96483000
    37  F          0.31448000      -0.02398000       0.40319000
    38  F          0.68552000      -0.02398000       0.09681000
    39  F          0.81448000       0.47602000       0.40319000
    40  F          0.18552000       0.47602000       0.09681000
    41  F          0.68552000       0.02398000       0.59681000
    42  F          0.31448000       0.02398000       0.90319000
    43  F          0.18552000       0.52398000       0.59681000
    44  F          0.81448000       0.52398000       0.90319000
