data_RISTUI
_symmetry_space_group_name_H-M    'P1'
_symmetry_Int_Tables_number       1
loop_
_symmetry_equiv_pos_site_id
_symmetry_equiv_pos_as_xyz
1 x,y,z
_cell_length_a                   4.1442
_cell_length_b                   9.034413
_cell_length_c                   10.742416
_cell_angle_alpha                90.0
_cell_angle_beta                 91.113
_cell_angle_gamma                90.0
loop_
_atom_site_label
_atom_site_type_symbol
_atom_site_fract_x
_atom_site_fract_y
_atom_site_fract_z
     1  S          0.60625160       0.09088700       0.23082600
     2  S          0.39374840       0.59088700       0.26917400
     3  S          0.39374840       0.90911300       0.76917400
     4  S          0.60625160       0.40911300       0.73082600
     5  S          0.75079170       0.31438700       0.06578600
     6  S          0.24920830       0.81438700       0.43421400
     7  S          0.24920830       0.68561300       0.93421400
     8  S          0.75079170       0.18561300       0.56578600
     9  N          0.57306000       0.26782000       0.19602000
    10  N          0.42694000       0.76782000       0.30398000
    11  N          0.42694000       0.73218000       0.80398000
    12  N          0.57306000       0.23218000       0.69602000
    13  C          0.92066000       0.88428000       0.08362000
    14  C          0.07934000       0.38428000       0.41638000
    15  C          0.07934000       0.11572000       0.91638000
    16  C          0.92066000       0.61572000       0.58362000
    17  C          0.82265000       0.02943000       0.10492000
    18  C          0.17735000       0.52943000       0.39508000
    19  C          0.17735000       0.97057000       0.89508000
    20  C          0.82265000       0.47057000       0.60492000
    21  C          0.90076000       0.14323000       0.02162000
    22  C          0.09924000       0.64323000       0.47838000
    23  C          0.09924000       0.85677000       0.97838000
    24  C          0.90076000       0.35677000       0.52162000
    25  H          0.87000000       0.80700000       0.14000000
    26  H          0.13000000       0.30700000       0.36000000
    27  H          0.13000000       0.19300000       0.86000000
    28  H          0.87000000       0.69300000       0.64000000
