data_RIVDOQ
_symmetry_space_group_name_H-M    'P1'
_symmetry_Int_Tables_number       1
loop_
_symmetry_equiv_pos_site_id
_symmetry_equiv_pos_as_xyz
1 x,y,z
_cell_length_a                   7.74469
_cell_length_b                   9.33681
_cell_length_c                   5.85847
_cell_angle_alpha                90.0
_cell_angle_beta                 90.0
_cell_angle_gamma                90.0
loop_
_atom_site_label
_atom_site_type_symbol
_atom_site_fract_x
_atom_site_fract_y
_atom_site_fract_z
     1  Cl         0.88856600       0.59454400       0.23409700
     2  Cl         0.61143400       0.40545600       0.73409700
     3  Cl         0.11143400       0.09454400       0.76590300
     4  Cl         0.38856600       0.90545600       0.26590300
     5  Cl         0.11143400       0.40545600       0.76590300
     6  Cl         0.38856600       0.59454400       0.26590300
     7  Cl         0.88856600       0.90545600       0.23409700
     8  Cl         0.61143400       0.09454400       0.73409700
     9  C          0.93373000       0.75000000       0.40274000
    10  C          0.56627000       0.25000000       0.90274000
    11  C          0.06627000       0.25000000       0.59726000
    12  C          0.43373000       0.75000000       0.09726000
    13  H          0.05940000       0.75000000       0.42940000
    14  H          0.44060000       0.25000000       0.92940000
    15  H          0.94060000       0.25000000       0.57060000
    16  H          0.55940000       0.75000000       0.07060000
    17  C          0.82894000       0.75000000       0.61804000
    18  C          0.67106000       0.25000000       0.11804000
    19  C          0.17106000       0.25000000       0.38196000
    20  C          0.32894000       0.75000000       0.88196000
    21  H          0.71030000       0.75000000       0.57550000
    22  H          0.78970000       0.25000000       0.07550000
    23  H          0.28970000       0.25000000       0.42450000
    24  H          0.21030000       0.75000000       0.92450000
    25  H          0.85220000       0.66671500       0.70430000
    26  H          0.64780000       0.33328500       0.20430000
    27  H          0.14780000       0.16671500       0.29570000
    28  H          0.35220000       0.83328500       0.79570000
    29  H          0.14780000       0.33328500       0.29570000
    30  H          0.35220000       0.66671500       0.79570000
    31  H          0.85220000       0.83328500       0.70430000
    32  H          0.64780000       0.16671500       0.20430000
