data_TCYETY01
_symmetry_space_group_name_H-M    'P1'
_symmetry_Int_Tables_number       1
loop_
_symmetry_equiv_pos_site_id
_symmetry_equiv_pos_as_xyz
1 x,y,z
_cell_length_a                   9.7366
_cell_length_b                   9.7366
_cell_length_c                   9.7366
_cell_angle_alpha                90.0
_cell_angle_beta                 90.0
_cell_angle_gamma                90.0
loop_
_atom_site_label
_atom_site_type_symbol
_atom_site_fract_x
_atom_site_fract_y
_atom_site_fract_z
     1  C          0.06900000       0.50000000       0.50000000
     2  C          0.56900000      -0.00000000       0.00000000
     3  C          0.50000000       0.06900000       0.50000000
     4  C          0.50000000       0.50000000       0.06900000
     5  C         -0.00000000       0.56900000      -0.00000000
     6  C         -0.00000000      -0.00000000       0.56900000
     7  C          0.93100000       0.50000000       0.50000000
     8  C          0.43100000      -0.00000000       0.00000000
     9  C          0.50000000       0.50000000       0.93100000
    10  C         -0.00000000      -0.00000000       0.43100000
    11  C          0.50000000       0.93100000       0.50000000
    12  C         -0.00000000       0.43100000      -0.00000000
    13  C          0.14770000       0.50000000       0.62490000
    14  C          0.64770000      -0.00000000       0.12490000
    15  C          0.62490000       0.14770000       0.50000000
    16  C          0.50000000       0.62490000       0.14770000
    17  C          0.12490000       0.64770000      -0.00000000
    18  C         -0.00000000       0.12490000       0.64770000
    19  C          0.85230000       0.50000000       0.37510000
    20  C          0.35230000      -0.00000000       0.87510000
    21  C          0.37510000       0.14770000       0.50000000
    22  C          0.50000000       0.62490000       0.85230000
    23  C          0.87510000       0.64770000       0.00000000
    24  C         -0.00000000       0.12490000       0.35230000
    25  C          0.85230000       0.50000000       0.62490000
    26  C          0.35230000      -0.00000000       0.12490000
    27  C          0.37510000       0.85230000       0.50000000
    28  C          0.50000000       0.37510000       0.14770000
    29  C          0.87510000       0.35230000       0.00000000
    30  C         -0.00000000       0.87510000       0.64770000
    31  C          0.14770000       0.50000000       0.37510000
    32  C          0.64770000       0.00000000       0.87510000
    33  C          0.62490000       0.85230000       0.50000000
    34  C          0.50000000       0.37510000       0.85230000
    35  C          0.12490000       0.35230000       0.00000000
    36  C         -0.00000000       0.87510000       0.35230000
    37  N          0.21290000       0.50000000       0.72160000
    38  N          0.71290000      -0.00000000       0.22160000
    39  N          0.72160000       0.21290000       0.50000000
    40  N          0.50000000       0.72160000       0.21290000
    41  N          0.22160000       0.71290000      -0.00000000
    42  N         -0.00000000       0.22160000       0.71290000
    43  N          0.78710000       0.50000000       0.27840000
    44  N          0.28710000      -0.00000000       0.77840000
    45  N          0.27840000       0.21290000       0.50000000
    46  N          0.50000000       0.72160000       0.78710000
    47  N          0.77840000       0.71290000       0.00000000
    48  N         -0.00000000       0.22160000       0.28710000
    49  N          0.78710000       0.50000000       0.72160000
    50  N          0.28710000      -0.00000000       0.22160000
    51  N          0.27840000       0.78710000       0.50000000
    52  N          0.50000000       0.27840000       0.21290000
    53  N          0.77840000       0.28710000       0.00000000
    54  N         -0.00000000       0.77840000       0.71290000
    55  N          0.21290000       0.50000000       0.27840000
    56  N          0.71290000       0.00000000       0.77840000
    57  N          0.72160000       0.78710000       0.50000000
    58  N          0.50000000       0.27840000       0.78710000
    59  N          0.22160000       0.28710000       0.00000000
    60  N         -0.00000000       0.77840000       0.28710000
