
#######################################################################
#
#                 Cambridge Crystallographic Data Centre
#                                CCDC 
#
#######################################################################
#
# If this CIF has been generated from an entry in the Cambridge 
# Structural Database, then it will include bibliographic, chemical, 
# crystal, experimental, refinement or atomic coordinate data resulting 
# from the CCDC's data processing and validation procedures.
#
#######################################################################

data_TDAZOL
_chemical_formula_moiety         'C2 H2 N2 S1'
_chemical_name_systematic        1,3,4-Thiadiazole
_symmetry_cell_setting           tetragonal
_symmetry_space_group_name_H-M   'P 41 21 2'
_symmetry_Int_Tables_number      92
_space_group_name_Hall           'P 4abw 2nw'
loop_
_symmetry_equiv_pos_site_id
_symmetry_equiv_pos_as_xyz
1 x,y,z
2 1/2-y,1/2+x,1/4+z
3 -x,-y,1/2+z
4 1/2+y,1/2-x,3/4+z
5 y,x,-z
6 1/2+x,1/2-y,3/4-z
7 -y,-x,1/2-z
8 1/2-x,1/2+y,1/4-z
_cell_length_a                   5.324
_cell_length_b                   5.324
_cell_length_c                   12.643
_cell_angle_alpha                90
_cell_angle_beta                 90
_cell_angle_gamma                90
_cell_volume                     358.366
_chemical_melting_point          30deg.C
_cell_formula_units_Z            4
loop_
_atom_site_label
_atom_site_type_symbol
_atom_site_fract_x
_atom_site_fract_y
_atom_site_fract_z
C1 C -0.47270 0.23690 0.03770
H1 H -0.39000 0.10000 0.06500
N1 N -0.37270 0.45710 0.01990
S1 S -0.78550 0.21450 0.00000
N1D N -0.54290 0.62730 -0.01990
C1D C -0.76310 0.52730 -0.03770
H1D H -0.90000 0.61000 -0.06500
loop_
_geom_bond_atom_site_label_1
_geom_bond_atom_site_label_2
_geom_bond_site_symmetry_1
_geom_bond_site_symmetry_2
C1 H1 1_555 1_555
N1 C1 1_555 1_555
S1 C1 1_555 1_555
N1D N1 1_555 1_555
C1D S1 1_555 1_555
H1D C1D 1_555 1_555
N1D C1D 1_555 1_555

#END
