data_TFCYPH
_symmetry_space_group_name_H-M    'P1'
_symmetry_Int_Tables_number       1
loop_
_symmetry_equiv_pos_site_id
_symmetry_equiv_pos_as_xyz
1 x,y,z
_cell_length_a                   10.1
_cell_length_b                   10.1
_cell_length_c                   6.397
_cell_angle_alpha                90.0
_cell_angle_beta                 90.0
_cell_angle_gamma                90.0
loop_
_atom_site_label
_atom_site_type_symbol
_atom_site_fract_x
_atom_site_fract_y
_atom_site_fract_z
     1  C         -0.00000000       0.25360000       0.18590000
     2  C          0.25360000       0.00000000       0.81410000
     3  C          0.50000000       0.24640000       0.31410000
     4  C         -0.00000000       0.74640000       0.18590000
     5  C          0.24640000       0.50000000       0.68590000
     6  C          0.74640000       0.00000000       0.81410000
     7  C          0.50000000       0.75360000       0.31410000
     8  C          0.75360000       0.50000000       0.68590000
     9  F          0.00000000       0.19430000       0.37060000
    10  F          0.19430000       0.00000000       0.62940000
    11  F          0.50000000       0.30570000       0.12940000
    12  F         -0.00000000       0.80570000       0.37060000
    13  F          0.30570000       0.50000000       0.87060000
    14  F          0.80570000       0.00000000       0.62940000
    15  F          0.50000000       0.69430000       0.12940000
    16  F          0.69430000       0.50000000       0.87060000
    17  F          0.89520000       0.33040000       0.18510000
    18  F          0.33040000       0.10480000       0.81490000
    19  F          0.39520000       0.16960000       0.31490000
    20  F          0.60480000       0.16960000       0.31490000
    21  F          0.10480000       0.66960000       0.18510000
    22  F          0.16960000       0.60480000       0.68510000
    23  F          0.16960000       0.39520000       0.68510000
    24  F          0.66960000       0.89520000       0.81490000
    25  F          0.60480000       0.83040000       0.31490000
    26  F          0.39520000       0.83040000       0.31490000
    27  F          0.83040000       0.39520000       0.68510000
    28  F          0.83040000       0.60480000       0.68510000
    29  F          0.10480000       0.33040000       0.18510000
    30  F          0.66960000       0.10480000       0.81490000
    31  F          0.89520000       0.66960000       0.18510000
    32  F          0.33040000       0.89520000       0.81490000
    33  P          0.00000000       0.14750000       0.94710000
    34  P          0.14750000       0.00000000       0.05290000
    35  P          0.50000000       0.35250000       0.55290000
    36  P          0.00000000       0.85250000       0.94710000
    37  P          0.35250000       0.50000000       0.44710000
    38  P          0.85250000       0.00000000       0.05290000
    39  P          0.50000000       0.64750000       0.55290000
    40  P          0.64750000       0.50000000       0.44710000
