data_TMCBDT
_symmetry_space_group_name_H-M    'P1'
_symmetry_Int_Tables_number       1
loop_
_symmetry_equiv_pos_site_id
_symmetry_equiv_pos_as_xyz
1 x,y,z
_cell_length_a                   6.3301
_cell_length_b                   6.3301
_cell_length_c                   12.5494
_cell_angle_alpha                90.0
_cell_angle_beta                 90.0
_cell_angle_gamma                90.0
loop_
_atom_site_label
_atom_site_type_symbol
_atom_site_fract_x
_atom_site_fract_y
_atom_site_fract_z
     1  C          0.11570000       0.11570000       0.00000000
     2  C          0.38430000       0.61570000       0.50000000
     3  C          0.88430000       0.88430000       0.00000000
     4  C          0.61570000       0.38430000       0.50000000
     5  C          0.00000000       0.00000000       0.08850000
     6  C          0.50000000       0.50000000       0.58850000
     7  C          0.50000000       0.50000000       0.41150000
     8  C          0.00000000       0.00000000       0.91150000
     9  C          0.14070000       0.85930000       0.15570000
    10  C          0.64070000       0.64070000       0.65570000
    11  C          0.85930000       0.14070000       0.15570000
    12  C          0.35930000       0.35930000       0.65570000
    13  C          0.64070000       0.64070000       0.34430000
    14  C          0.14070000       0.85930000       0.84430000
    15  C          0.35930000       0.35930000       0.34430000
    16  C          0.85930000       0.14070000       0.84430000
    17  H          0.24030000       0.75970000       0.11070000
    18  H          0.74030000       0.74030000       0.61070000
    19  H          0.75970000       0.24030000       0.11070000
    20  H          0.25970000       0.25970000       0.61070000
    21  H          0.74030000       0.74030000       0.38930000
    22  H          0.24030000       0.75970000       0.88930000
    23  H          0.25970000       0.25970000       0.38930000
    24  H          0.75970000       0.24030000       0.88930000
    25  H          0.05890000       0.75560000       0.20620000
    26  H          0.74440000       0.55890000       0.70620000
    27  H          0.94110000       0.24440000       0.20620000
    28  H          0.25560000       0.44110000       0.70620000
    29  H          0.55890000       0.74440000       0.29380000
    30  H          0.24440000       0.94110000       0.79380000
    31  H          0.44110000       0.25560000       0.29380000
    32  H          0.75560000       0.05890000       0.79380000
    33  H          0.94110000       0.24440000       0.79380000
    34  H          0.25560000       0.44110000       0.29380000
    35  H          0.05890000       0.75560000       0.79380000
    36  H          0.74440000       0.55890000       0.29380000
    37  H          0.44110000       0.25560000       0.70620000
    38  H          0.75560000       0.05890000       0.20620000
    39  H          0.55890000       0.74440000       0.70620000
    40  H          0.24440000       0.94110000       0.20620000
    41  S          0.29450000       0.29450000       0.00000000
    42  S          0.20550000       0.79450000       0.50000000
    43  S          0.70550000       0.70550000       0.00000000
    44  S          0.79450000       0.20550000       0.50000000
