data_TRIZIN
_symmetry_space_group_name_H-M    'P1'
_symmetry_Int_Tables_number       1
loop_
_symmetry_equiv_pos_site_id
_symmetry_equiv_pos_as_xyz
1 x,y,z
_cell_length_a                   9.647
_cell_length_b                   9.647
_cell_length_c                   7.281
_cell_angle_alpha                90.0
_cell_angle_beta                 90.0
_cell_angle_gamma                120.0
loop_
_atom_site_label
_atom_site_type_symbol
_atom_site_fract_x
_atom_site_fract_y
_atom_site_fract_z
     1  C         -0.00000000       0.13160000       0.25000000
     2  C          0.33333333       0.79826667       0.91666667
     3  C          0.66666667       0.46493333       0.58333333
     4  C          0.86840000       0.86840000       0.25000000
     5  C          0.13160000       0.00000000       0.25000000
     6  C          0.20173333       0.53506667       0.91666667
     7  C          0.46493333       0.66666667       0.91666667
     8  C          0.53506667       0.20173333       0.58333333
     9  C          0.79826667       0.33333333       0.58333333
    10  C          0.00000000       0.86840000       0.75000000
    11  C          0.66666667       0.20173333       0.08333333
    12  C          0.33333333       0.53506667       0.41666667
    13  C          0.13160000       0.13160000       0.75000000
    14  C          0.86840000       0.00000000       0.75000000
    15  C          0.79826667       0.46493333       0.08333333
    16  C          0.53506667       0.33333333       0.08333333
    17  C          0.46493333       0.79826667       0.41666667
    18  C          0.20173333       0.66666667       0.41666667
    19  H         -0.00000000       0.22840000       0.25000000
    20  H          0.33333333       0.89506667       0.91666667
    21  H          0.66666667       0.56173333       0.58333333
    22  H          0.77160000       0.77160000       0.25000000
    23  H          0.22840000       0.00000000       0.25000000
    24  H          0.10493333       0.43826667       0.91666667
    25  H          0.56173333       0.66666667       0.91666667
    26  H          0.43826667       0.10493333       0.58333333
    27  H          0.89506667       0.33333333       0.58333333
    28  H         -0.00000000       0.77160000       0.75000000
    29  H          0.66666667       0.10493333       0.08333333
    30  H          0.33333333       0.43826667       0.41666667
    31  H          0.22840000       0.22840000       0.75000000
    32  H          0.77160000       0.00000000       0.75000000
    33  H          0.89506667       0.56173333       0.08333333
    34  H          0.43826667       0.33333333       0.08333333
    35  H          0.56173333       0.89506667       0.41666667
    36  H          0.10493333       0.66666667       0.41666667
    37  N          0.85940000       0.00000000       0.25000000
    38  N          0.19273333       0.66666667       0.91666667
    39  N          0.52606667       0.33333333       0.58333333
    40  N         -0.00000000       0.85940000       0.25000000
    41  N          0.14060000       0.14060000       0.25000000
    42  N          0.33333333       0.52606667       0.91666667
    43  N          0.47393333       0.80726667       0.91666667
    44  N          0.66666667       0.19273333       0.58333333
    45  N          0.80726667       0.47393333       0.58333333
    46  N          0.14060000       0.00000000       0.75000000
    47  N          0.80726667       0.33333333       0.08333333
    48  N          0.47393333       0.66666667       0.41666667
    49  N          0.00000000       0.14060000       0.75000000
    50  N          0.85940000       0.85940000       0.75000000
    51  N          0.66666667       0.47393333       0.08333333
    52  N          0.52606667       0.19273333       0.08333333
    53  N          0.33333333       0.80726667       0.41666667
    54  N          0.19273333       0.52606667       0.41666667
