data_TROXAN
_symmetry_space_group_name_H-M    'P1'
_symmetry_Int_Tables_number       1
loop_
_symmetry_equiv_pos_site_id
_symmetry_equiv_pos_as_xyz
1 x,y,z
_cell_length_a                   9.395
_cell_length_b                   9.395
_cell_length_c                   8.35
_cell_angle_alpha                90.0
_cell_angle_beta                 90.0
_cell_angle_gamma                120.0
loop_
_atom_site_label
_atom_site_type_symbol
_atom_site_fract_x
_atom_site_fract_y
_atom_site_fract_z
     1  C          0.13330000       0.14960000       0.96900000
     2  C          0.46663333       0.81626667       0.63566667
     3  C          0.79996667       0.48293333       0.30233333
     4  C          0.85040000      -0.01630000       0.96900000
     5  C          0.01630000       0.86670000       0.96900000
     6  C          0.18373333       0.65036667       0.63566667
     7  C          0.34963333       0.53336667       0.63566667
     8  C          0.51706667       0.31703333       0.30233333
     9  C          0.68296667       0.20003333       0.30233333
    10  C          0.85040000       0.86670000       0.46900000
    11  C          0.18373333       0.53336667       0.13566667
    12  C          0.51706667       0.20003333       0.80233333
    13  C          0.01630000       0.14960000       0.46900000
    14  C          0.13330000      -0.01630000       0.46900000
    15  C          0.34963333       0.81626667       0.13566667
    16  C          0.46663333       0.65036667       0.13566667
    17  C          0.68296667       0.48293333       0.80233333
    18  C          0.79996667       0.31703333       0.80233333
    19  H          0.13330000       0.14960000       0.83970000
    20  H          0.46663333       0.81626667       0.50636667
    21  H          0.79996667       0.48293333       0.17303333
    22  H          0.85040000      -0.01630000       0.83970000
    23  H          0.01630000       0.86670000       0.83970000
    24  H          0.18373333       0.65036667       0.50636667
    25  H          0.34963333       0.53336667       0.50636667
    26  H          0.51706667       0.31703333       0.17303333
    27  H          0.68296667       0.20003333       0.17303333
    28  H          0.85040000       0.86670000       0.33970000
    29  H          0.18373333       0.53336667       0.00636667
    30  H          0.51706667       0.20003333       0.67303333
    31  H          0.01630000       0.14960000       0.33970000
    32  H          0.13330000      -0.01630000       0.33970000
    33  H          0.34963333       0.81626667       0.00636667
    34  H          0.46663333       0.65036667       0.00636667
    35  H          0.68296667       0.48293333       0.67303333
    36  H          0.79996667       0.31703333       0.67303333
    37  H          0.23460000       0.26330000       0.01320000
    38  H          0.56793333       0.92996667       0.67986667
    39  H          0.90126667       0.59663333       0.34653333
    40  H          0.73670000       0.97130000       0.01320000
    41  H          0.02870000       0.76540000       0.01320000
    42  H          0.07003333       0.63796667       0.67986667
    43  H          0.36203333       0.43206667       0.67986667
    44  H          0.40336667       0.30463333       0.34653333
    45  H          0.69536667       0.09873333       0.34653333
    46  H          0.73670000       0.76540000       0.51320000
    47  H          0.07003333       0.43206667       0.17986667
    48  H          0.40336667       0.09873333       0.84653333
    49  H          0.02870000       0.26330000       0.51320000
    50  H          0.23460000       0.97130000       0.51320000
    51  H          0.36203333       0.92996667       0.17986667
    52  H          0.56793333       0.63796667       0.17986667
    53  H          0.69536667       0.59663333       0.84653333
    54  H          0.90126667       0.30463333       0.84653333
    55  O          0.14940000       0.01630000       0.03040000
    56  O          0.48273333       0.68296667       0.69706667
    57  O          0.81606667       0.34963333       0.36373333
    58  O         -0.01630000       0.13310000       0.03040000
    59  O          0.86690000       0.85060000       0.03040000
    60  O          0.31703333       0.79976667       0.69706667
    61  O          0.20023333       0.51726667       0.69706667
    62  O          0.65036667       0.46643333       0.36373333
    63  O          0.53356667       0.18393333       0.36373333
    64  O         -0.01630000       0.85060000       0.53040000
    65  O          0.31703333       0.51726667       0.19706667
    66  O          0.65036667       0.18393333       0.86373333
    67  O          0.86690000       0.01630000       0.53040000
    68  O          0.14940000       0.13310000       0.53040000
    69  O          0.20023333       0.68296667       0.19706667
    70  O          0.48273333       0.79976667       0.19706667
    71  O          0.53356667       0.34963333       0.86373333
    72  O          0.81606667       0.46643333       0.86373333
