data_TSCPCP02
_symmetry_space_group_name_H-M    'P1'
_symmetry_Int_Tables_number       1
loop_
_symmetry_equiv_pos_site_id
_symmetry_equiv_pos_as_xyz
1 x,y,z
_cell_length_a                   6.7491
_cell_length_b                   6.7491
_cell_length_c                   9.4422
_cell_angle_alpha                90.0
_cell_angle_beta                 90.0
_cell_angle_gamma                120.0
loop_
_atom_site_label
_atom_site_type_symbol
_atom_site_fract_x
_atom_site_fract_y
_atom_site_fract_z
     1  C          0.20752000       0.66732000       0.25000000
     2  C          0.33268000       0.54020000       0.25000000
     3  C          0.45980000       0.79248000       0.25000000
     4  C          0.79248000       0.33268000       0.75000000
     5  C          0.66732000       0.45980000       0.75000000
     6  C          0.54020000       0.20752000       0.75000000
     7  C          0.02111000       0.66921000       0.16921000
     8  C          0.33079000       0.35190000       0.16921000
     9  C          0.64810000      -0.02111000       0.16921000
    10  C         -0.02111000       0.33079000       0.66921000
    11  C          0.66921000       0.64810000       0.66921000
    12  C          0.35190000       0.02111000       0.66921000
    13  C         -0.02111000       0.33079000       0.83079000
    14  C          0.66921000       0.64810000       0.83079000
    15  C          0.35190000       0.02111000       0.83079000
    16  C          0.02111000       0.66921000       0.33079000
    17  C          0.33079000       0.35190000       0.33079000
    18  C          0.64810000      -0.02111000       0.33079000
    19  H          0.91197900       0.52832000       0.12021200
    20  H          0.47168000       0.38365900       0.12021200
    21  H          0.61634100       0.08802100       0.12021200
    22  H          0.08802100       0.47168000       0.62021200
    23  H          0.52832000       0.61634100       0.62021200
    24  H          0.38365900       0.91197900       0.62021200
    25  H          0.08802100       0.47168000       0.87978800
    26  H          0.52832000       0.61634100       0.87978800
    27  H          0.38365900       0.91197900       0.87978800
    28  H          0.91197900       0.52832000       0.37978800
    29  H          0.47168000       0.38365900       0.37978800
    30  H          0.61634100       0.08802100       0.37978800
    31  H          0.06072000       0.81212000       0.12071200
    32  H          0.18788000       0.24860000       0.12071200
    33  H          0.75140000       0.93928000       0.12071200
    34  H          0.93928000       0.18788000       0.62071200
    35  H          0.81212000       0.75140000       0.62071200
    36  H          0.24860000       0.06072000       0.62071200
    37  H          0.93928000       0.18788000       0.87928800
    38  H          0.81212000       0.75140000       0.87928800
    39  H          0.24860000       0.06072000       0.87928800
    40  H          0.06072000       0.81212000       0.37928800
    41  H          0.18788000       0.24860000       0.37928800
    42  H          0.75140000       0.93928000       0.37928800
