data_VEWJAI
_symmetry_space_group_name_H-M    'P1'
_symmetry_Int_Tables_number       1
loop_
_symmetry_equiv_pos_site_id
_symmetry_equiv_pos_as_xyz
1 x,y,z
_cell_length_a                   7.4272
_cell_length_b                   7.4272
_cell_length_c                   7.4272
_cell_angle_alpha                67.892
_cell_angle_beta                 67.892
_cell_angle_gamma                67.892
loop_
_atom_site_label
_atom_site_type_symbol
_atom_site_fract_x
_atom_site_fract_y
_atom_site_fract_z
     1  P          0.00000000      -0.00000000      -0.00000000
     2  F          0.14472000       0.14472000       0.87187000
     3  F          0.87187000       0.14472000       0.14472000
     4  F          0.14472000       0.87187000       0.14472000
     5  F          0.85528000       0.85528000       0.12813000
     6  F          0.85528000       0.12813000       0.85528000
     7  F          0.12813000       0.85528000       0.85528000
     8  P          0.50000000       0.50000000       0.50000000
     9  F          0.53672000       0.53672000       0.26593000
    10  F          0.26593000       0.53672000       0.53672000
    11  F          0.53672000       0.26593000       0.53672000
    12  F          0.46328000       0.46328000       0.73407000
    13  F          0.46328000       0.73407000       0.46328000
    14  F          0.73407000       0.46328000       0.46328000
    15  C          0.24574000       0.24574000       0.24574000
    16  C          0.75426000       0.75426000       0.75426000
    17  N          0.15353000       0.15353000       0.42795000
    18  N          0.42795000       0.15353000       0.15353000
    19  N          0.15353000       0.42795000       0.15353000
    20  N          0.84647000       0.84647000       0.57205000
    21  N          0.84647000       0.57205000       0.84647000
    22  N          0.57205000       0.84647000       0.84647000
    23  H          0.23040000       0.04640000       0.47450000
    24  H          0.47450000       0.23040000       0.04640000
    25  H          0.04640000       0.47450000       0.23040000
    26  H          0.95360000       0.76960000       0.52550000
    27  H          0.76960000       0.52550000       0.95360000
    28  H          0.52550000       0.95360000       0.76960000
    29  H          0.76960000       0.95360000       0.52550000
    30  H          0.52550000       0.76960000       0.95360000
    31  H          0.95360000       0.52550000       0.76960000
    32  H          0.04640000       0.23040000       0.47450000
    33  H          0.23040000       0.47450000       0.04640000
    34  H          0.47450000       0.04640000       0.23040000
