data_XAZTAW
_symmetry_space_group_name_H-M    'P1'
_symmetry_Int_Tables_number       1
loop_
_symmetry_equiv_pos_site_id
_symmetry_equiv_pos_as_xyz
1 x,y,z
_cell_length_a                   8.17094
_cell_length_b                   8.17094
_cell_length_c                   10.988312
_cell_angle_alpha                90.0
_cell_angle_beta                 90.0
_cell_angle_gamma                120.0
loop_
_atom_site_label
_atom_site_type_symbol
_atom_site_fract_x
_atom_site_fract_y
_atom_site_fract_z
     1  O          0.36321600       0.68161300       0.08330000
     2  O          0.31838700       0.68160300       0.41663333
     3  O          0.31839700       0.63678400       0.74996667
     4  O          0.63678400       0.31838700       0.58330000
     5  O          0.68161300       0.31839700       0.91663333
     6  O          0.68160300       0.36321600       0.24996667
     7  N          0.08774600       0.56911800       0.18625300
     8  N          0.43088200       0.51862800       0.51958633
     9  N          0.48137200       0.91225400       0.85291967
    10  N          0.91225400       0.43088200       0.68625300
    11  N          0.56911800       0.48137200       0.01958633
    12  N          0.51862800       0.08774600       0.35291967
    13  N          0.56911800       0.08774600       0.14708033
    14  N          0.51862800       0.43088200       0.81374700
    15  N          0.91225400       0.48137200       0.48041367
    16  N          0.43088200       0.91225400       0.64708033
    17  N          0.48137200       0.56911800       0.31374700
    18  N          0.08774600       0.51862800       0.98041367
    19  H          0.15371600       0.60631400       0.25119000
    20  H          0.39368600       0.54740200       0.58452333
    21  H          0.45259800       0.84628400       0.91785667
    22  H          0.84628400       0.39368600       0.75119000
    23  H          0.60631400       0.45259800       0.08452333
    24  H          0.54740200       0.15371600       0.41785667
    25  H          0.60631400       0.15371600       0.08214333
    26  H          0.54740200       0.39368600       0.74881000
    27  H          0.84628400       0.45259800       0.41547667
    28  H          0.39368600       0.84628400       0.58214333
    29  H          0.45259800       0.60631400       0.24881000
    30  H          0.15371600       0.54740200       0.91547667
    31  H          0.96378300       0.51401800       0.19571200
    32  H          0.48598200       0.44976500       0.52904533
    33  H          0.55023500       0.03621700       0.86237867
    34  H          0.03621700       0.48598200       0.69571200
    35  H          0.51401800       0.55023500       0.02904533
    36  H          0.44976500       0.96378300       0.36237867
    37  H          0.51401800       0.96378300       0.13762133
    38  H          0.44976500       0.48598200       0.80428800
    39  H          0.03621700       0.55023500       0.47095467
    40  H          0.48598200       0.03621700       0.63762133
    41  H          0.55023500       0.51401800       0.30428800
    42  H          0.96378300       0.44976500       0.97095467
    43  C          0.18461700       0.59231400       0.08330000
    44  C          0.40768600       0.59230300       0.41663333
    45  C          0.40769700       0.81538300       0.74996667
    46  C          0.81538300       0.40768600       0.58330000
    47  C          0.59231400       0.40769700       0.91663333
    48  C          0.59230300       0.18461700       0.24996667
