data_XEDVOS
_symmetry_space_group_name_H-M    'P1'
_symmetry_Int_Tables_number       1
loop_
_symmetry_equiv_pos_site_id
_symmetry_equiv_pos_as_xyz
1 x,y,z
_cell_length_a                   5.80502
_cell_length_b                   6.63773
_cell_length_c                   10.43105
_cell_angle_alpha                90.0
_cell_angle_beta                 102.5462
_cell_angle_gamma                90.0
loop_
_atom_site_label
_atom_site_type_symbol
_atom_site_fract_x
_atom_site_fract_y
_atom_site_fract_z
     1  S          0.19514800       0.81472300       0.97980500
     2  S          0.30485200       0.31472300       0.52019500
     3  S          0.80485200       0.18527700       0.02019500
     4  S          0.69514800       0.68527700       0.47980500
     5  S          0.33081800       0.20625800       0.85367500
     6  S          0.16918200       0.70625800       0.64632500
     7  S          0.66918200       0.79374200       0.14632500
     8  S          0.83081800       0.29374200       0.35367500
     9  S          0.31473900       0.48726200       0.17749500
    10  S          0.18526100      -0.01273800       0.32250500
    11  S          0.68526100       0.51273800       0.82250500
    12  S          0.81473900       0.01273800       0.67749500
    13  C          0.39013000       0.00483000       0.96150830
    14  C          0.10987000       0.50483000       0.53849170
    15  C          0.60987000      -0.00483000       0.03849170
    16  C          0.89013000       0.49517000       0.46150830
    17  C          0.39013000       0.68827000       0.10390170
    18  C          0.10987000       0.18827000       0.39609830
    19  C          0.60987000       0.31173000       0.89609830
    20  C          0.89013000       0.81173000       0.60390170
