data_XELYEU
_symmetry_space_group_name_H-M    'P1'
_symmetry_Int_Tables_number       1
loop_
_symmetry_equiv_pos_site_id
_symmetry_equiv_pos_as_xyz
1 x,y,z
_cell_length_a                   7.73022
_cell_length_b                   4.73421
_cell_length_c                   6.43772
_cell_angle_alpha                90.0
_cell_angle_beta                 111.1731
_cell_angle_gamma                90.0
loop_
_atom_site_label
_atom_site_type_symbol
_atom_site_fract_x
_atom_site_fract_y
_atom_site_fract_z
     1  O          0.36031300       0.03543500       0.12604400
     2  O          0.63968700       0.03543500       0.37395600
     3  O          0.86031300       0.53543500       0.12604400
     4  O          0.13968700       0.53543500       0.37395600
     5  O          0.63968700       0.96456500       0.87395600
     6  O          0.36031300       0.96456500       0.62604400
     7  O          0.13968700       0.46456500       0.87395600
     8  O          0.86031300       0.46456500       0.62604400
     9  N          0.50000000       0.63153300       0.25000000
    10  N         -0.00000000       0.13153300       0.25000000
    11  N          0.50000000       0.36846700       0.75000000
    12  N          0.00000000       0.86846700       0.75000000
    13  N          0.50000000       0.91022400       0.25000000
    14  N          0.00000000       0.41022400       0.25000000
    15  N          0.50000000       0.08977600       0.75000000
    16  N          0.00000000       0.58977600       0.75000000
    17  H          0.60201500       0.56080000       0.33881700
    18  H          0.39798500       0.56080000       0.16118300
    19  H          0.10201500       0.06080000       0.33881700
    20  H          0.89798500       0.06080000       0.16118300
    21  H          0.39798500       0.43920000       0.66118300
    22  H          0.60201500       0.43920000       0.83881700
    23  H          0.89798500       0.93920000       0.66118300
    24  H          0.10201500       0.93920000       0.83881700
