data_XEVQEY
_symmetry_space_group_name_H-M    'P1'
_symmetry_Int_Tables_number       1
loop_
_symmetry_equiv_pos_site_id
_symmetry_equiv_pos_as_xyz
1 x,y,z
_cell_length_a                   4.73694
_cell_length_b                   6.52015
_cell_length_c                   8.07447
_cell_angle_alpha                90.0
_cell_angle_beta                 90.9148
_cell_angle_gamma                90.0
loop_
_atom_site_label
_atom_site_type_symbol
_atom_site_fract_x
_atom_site_fract_y
_atom_site_fract_z
     1  I          0.40293500       0.25000000       0.19310300
     2  I          0.59706500       0.75000000       0.80689700
     3  P          0.01913000       0.25000000       0.80246140
     4  P         -0.01913000       0.75000000       0.19753860
     5  H          0.21690000       0.39900000       0.82580000
     6  H          0.78310000       0.89900000       0.17420000
     7  H          0.78310000       0.60100000       0.17420000
     8  H          0.21690000       0.10100000       0.82580000
     9  H          0.82650000       0.25000000       0.92570000
    10  H          0.17350000       0.75000000       0.07430000
    11  C          0.86431300       0.25000000       0.59966000
    12  C          0.13568700       0.75000000       0.40034000
    13  H          0.75020000       0.36890000       0.58460000
    14  H          0.24980000       0.86890000       0.41540000
    15  H          0.24980000       0.63110000       0.41540000
    16  H          0.75020000       0.13110000       0.58460000
    17  H          0.01030000       0.25000000       0.52040000
    18  H         -0.01030000       0.75000000       0.47960000
