data_XIGYOF
_symmetry_space_group_name_H-M    'P1'
_symmetry_Int_Tables_number       1
loop_
_symmetry_equiv_pos_site_id
_symmetry_equiv_pos_as_xyz
1 x,y,z
_cell_length_a                   8.00831
_cell_length_b                   10.261513
_cell_length_c                   8.735411
_cell_angle_alpha                90.0
_cell_angle_beta                 90.7832
_cell_angle_gamma                90.0
loop_
_atom_site_label
_atom_site_type_symbol
_atom_site_fract_x
_atom_site_fract_y
_atom_site_fract_z
     1  Br         0.82436300       0.58232300       0.57339300
     2  Br         0.17563700       0.58232300       0.92660700
     3  Br         0.32436300       0.08232300       0.57339300
     4  Br         0.67563700       0.08232300       0.92660700
     5  Br         0.17563700       0.41767700       0.42660700
     6  Br         0.82436300       0.41767700       0.07339300
     7  Br         0.67563700       0.91767700       0.42660700
     8  Br         0.32436300       0.91767700       0.07339300
     9  S          0.50000000       0.65098800       0.75000000
    10  S         -0.00000000       0.15098800       0.75000000
    11  S          0.50000000       0.34901200       0.25000000
    12  S         -0.00000000       0.84901200       0.25000000
    13  O          0.58172000       0.72225180       0.86992000
    14  O          0.41828000       0.72225180       0.63008000
    15  O          0.08172000       0.22225180       0.86992000
    16  O          0.91828000       0.22225180       0.63008000
    17  O          0.41828000       0.27774820       0.13008000
    18  O          0.58172000       0.27774820       0.36992000
    19  O          0.91828000       0.77774820       0.13008000
    20  O          0.08172000       0.77774820       0.36992000
    21  C          0.63463000       0.53012000       0.67523000
    22  C          0.36537000       0.53012000       0.82477000
    23  C          0.13463000       0.03012000       0.67523000
    24  C          0.86537000       0.03012000       0.82477000
    25  C          0.36537000       0.46988000       0.32477000
    26  C          0.63463000       0.46988000       0.17523000
    27  C          0.86537000       0.96988000       0.32477000
    28  C          0.13463000       0.96988000       0.17523000
    29  C          0.57864000       0.41232000       0.70593000
    30  C          0.42136000       0.41232000       0.79407000
    31  C          0.07864000       0.91232000       0.70593000
    32  C          0.92136000       0.91232000       0.79407000
    33  C          0.42136000       0.58768000       0.29407000
    34  C          0.57864000       0.58768000       0.20593000
    35  C          0.92136000       0.08768000       0.29407000
    36  C          0.07864000       0.08768000       0.20593000
    37  H          0.63348800       0.33492000       0.67457700
    38  H          0.36651200       0.33492000       0.82542300
    39  H          0.13348800       0.83492000       0.67457700
    40  H          0.86651200       0.83492000       0.82542300
    41  H          0.36651200       0.66508000       0.32542300
    42  H          0.63348800       0.66508000       0.17457700
    43  H          0.86651200       0.16508000       0.32542300
    44  H          0.13348800       0.16508000       0.17457700
