data_YEJREO
_symmetry_space_group_name_H-M    'P1'
_symmetry_Int_Tables_number       1
loop_
_symmetry_equiv_pos_site_id
_symmetry_equiv_pos_as_xyz
1 x,y,z
_cell_length_a                   9.08035
_cell_length_b                   16.80291
_cell_length_c                   4.53633
_cell_angle_alpha                90.0
_cell_angle_beta                 90.0
_cell_angle_gamma                90.0
loop_
_atom_site_label
_atom_site_type_symbol
_atom_site_fract_x
_atom_site_fract_y
_atom_site_fract_z
     1  S          0.50000000       0.50000000       0.47921600
     2  S          0.75000000       0.75000000       0.72921600
     3  S          0.50000000       0.00000000      -0.02078400
     4  S          0.75000000       0.25000000       0.22921600
     5  S          0.00000000       0.50000000      -0.02078400
     6  S          0.25000000       0.75000000       0.22921600
     7  S          0.00000000       0.00000000       0.47921600
     8  S          0.25000000       0.25000000       0.72921600
     9  O          0.38052180       0.46459110       0.31955000
    10  O          0.61947820       0.53540890       0.31955000
    11  O          0.63052180       0.78540890       0.56955000
    12  O          0.86947820       0.71459110       0.56955000
    13  O          0.38052180       0.96459110       0.81955000
    14  O          0.61947820       0.03540890       0.81955000
    15  O          0.63052180       0.28540890       0.06955000
    16  O          0.86947820       0.21459110       0.06955000
    17  O          0.88052180       0.46459110       0.81955000
    18  O          0.11947820       0.53540890       0.81955000
    19  O          0.13052180       0.78540890       0.06955000
    20  O          0.36947820       0.71459110       0.06955000
    21  O          0.88052180       0.96459110       0.31955000
    22  O          0.11947820       0.03540890       0.31955000
    23  O          0.13052180       0.28540890       0.56955000
    24  O          0.36947820       0.21459110       0.56955000
    25  N          0.43032000       0.57046120       0.67975000
    26  N          0.56968000       0.42953880       0.67975000
    27  N          0.68032000       0.67953880       0.92975000
    28  N          0.81968000       0.82046120       0.92975000
    29  N          0.43032000       0.07046120       0.17975000
    30  N          0.56968000       0.92953880       0.17975000
    31  N          0.68032000       0.17953880       0.42975000
    32  N          0.81968000       0.32046120       0.42975000
    33  N          0.93032000       0.57046120       0.17975000
    34  N          0.06968000       0.42953880       0.17975000
    35  N          0.18032000       0.67953880       0.42975000
    36  N          0.31968000       0.82046120       0.42975000
    37  N          0.93032000       0.07046120       0.67975000
    38  N          0.06968000       0.92953880       0.67975000
    39  N          0.18032000       0.17953880       0.92975000
    40  N          0.31968000       0.32046120       0.92975000
    41  H          0.50030000       0.59441900       0.77410000
    42  H          0.49970000       0.40558100       0.77410000
    43  H          0.75030000       0.65558100       0.02410000
    44  H          0.74970000       0.84441900       0.02410000
    45  H          0.50030000       0.09441900       0.27410000
    46  H          0.49970000       0.90558100       0.27410000
    47  H          0.75030000       0.15558100       0.52410000
    48  H          0.74970000       0.34441900       0.52410000
    49  H          0.00030000       0.59441900       0.27410000
    50  H         -0.00030000       0.40558100       0.27410000
    51  H          0.25030000       0.65558100       0.52410000
    52  H          0.24970000       0.84441900       0.52410000
    53  H          0.00030000       0.09441900       0.77410000
    54  H         -0.00030000       0.90558100       0.77410000
    55  H          0.25030000       0.15558100       0.02410000
    56  H          0.24970000       0.34441900       0.02410000
    57  H          0.36930000       0.55420000       0.80480000
    58  H          0.63070000       0.44580000       0.80480000
    59  H          0.61930000       0.69580000       0.05480000
    60  H          0.88070000       0.80420000       0.05480000
    61  H          0.36930000       0.05420000       0.30480000
    62  H          0.63070000       0.94580000       0.30480000
    63  H          0.61930000       0.19580000       0.55480000
    64  H          0.88070000       0.30420000       0.55480000
    65  H          0.86930000       0.55420000       0.30480000
    66  H          0.13070000       0.44580000       0.30480000
    67  H          0.11930000       0.69580000       0.55480000
    68  H          0.38070000       0.80420000       0.55480000
    69  H          0.86930000       0.05420000       0.80480000
    70  H          0.13070000       0.94580000       0.80480000
    71  H          0.11930000       0.19580000       0.05480000
    72  H          0.38070000       0.30420000       0.05480000
