data_YEMRIR
_symmetry_space_group_name_H-M    'P1'
_symmetry_Int_Tables_number       1
loop_
_symmetry_equiv_pos_site_id
_symmetry_equiv_pos_as_xyz
1 x,y,z
_cell_length_a                   9.0991
_cell_length_b                   9.0991
_cell_length_c                   13.6601
_cell_angle_alpha                90.0
_cell_angle_beta                 90.0
_cell_angle_gamma                90.0
loop_
_atom_site_label
_atom_site_type_symbol
_atom_site_fract_x
_atom_site_fract_y
_atom_site_fract_z
     1  P          0.34884600       0.04337600       0.17603400
     2  P          0.84884600       0.54337600       0.67603400
     3  P          0.95662400       0.34884600       0.82396600
     4  P          0.45662400       0.84884600       0.32396600
     5  P          0.65115400       0.95662400       0.17603400
     6  P          0.15115400       0.45662400       0.67603400
     7  P          0.04337600       0.65115400       0.82396600
     8  P          0.54337600       0.15115400       0.32396600
     9  P          0.65115400       0.04337600       0.67603400
    10  P          0.15115400       0.54337600       0.17603400
    11  P          0.04337600       0.34884600       0.32396600
    12  P          0.54337600       0.84884600       0.82396600
    13  P          0.34884600       0.95662400       0.67603400
    14  P          0.84884600       0.45662400       0.17603400
    15  P          0.95662400       0.65115400       0.32396600
    16  P          0.45662400       0.15115400       0.82396600
    17  S          0.18764800       0.08930900       0.09739600
    18  S          0.68764800       0.58930900       0.59739600
    19  S          0.91069100       0.18764800       0.90260400
    20  S          0.41069100       0.68764800       0.40260400
    21  S          0.81235200       0.91069100       0.09739600
    22  S          0.31235200       0.41069100       0.59739600
    23  S          0.08930900       0.81235200       0.90260400
    24  S          0.58930900       0.31235200       0.40260400
    25  S          0.81235200       0.08930900       0.59739600
    26  S          0.31235200       0.58930900       0.09739600
    27  S          0.08930900       0.18764800       0.40260400
    28  S          0.58930900       0.68764800       0.90260400
    29  S          0.18764800       0.91069100       0.59739600
    30  S          0.68764800       0.41069100       0.09739600
    31  S          0.91069100       0.81235200       0.40260400
    32  S          0.41069100       0.31235200       0.90260400
    33  O          0.33002000       0.90728000       0.25091000
    34  O          0.83002000       0.40728000       0.75091000
    35  O          0.09272000       0.33002000       0.74909000
    36  O          0.59272000       0.83002000       0.24909000
    37  O          0.66998000       0.09272000       0.25091000
    38  O          0.16998000       0.59272000       0.75091000
    39  O          0.90728000       0.66998000       0.74909000
    40  O          0.40728000       0.16998000       0.24909000
    41  O          0.66998000       0.90728000       0.75091000
    42  O          0.16998000       0.40728000       0.25091000
    43  O          0.90728000       0.33002000       0.24909000
    44  O          0.40728000       0.83002000       0.74909000
    45  O          0.33002000       0.09272000       0.75091000
    46  O          0.83002000       0.59272000       0.25091000
    47  O          0.09272000       0.66998000       0.24909000
    48  O          0.59272000       0.16998000       0.74909000
    49  O          0.50000000       0.00000000       0.11971000
    50  O          0.00000000       0.50000000       0.61971000
    51  O         -0.00000000       0.50000000       0.88029000
    52  O          0.50000000      -0.00000000       0.38029000
    53  O          0.50000000       0.00000000       0.61971000
    54  O          0.00000000       0.50000000       0.11971000
    55  O         -0.00000000       0.50000000       0.38029000
    56  O          0.50000000      -0.00000000       0.88029000
