data_YICJUR
_symmetry_space_group_name_H-M    'P1'
_symmetry_Int_Tables_number       1
loop_
_symmetry_equiv_pos_site_id
_symmetry_equiv_pos_as_xyz
1 x,y,z
_cell_length_a                   7.23663
_cell_length_b                   8.43143
_cell_length_c                   7.22923
_cell_angle_alpha                90.0
_cell_angle_beta                 90.0
_cell_angle_gamma                90.0
loop_
_atom_site_label
_atom_site_type_symbol
_atom_site_fract_x
_atom_site_fract_y
_atom_site_fract_z
     1  I          0.25000000       0.75000000       0.96500900
     2  I          0.75000000       0.25000000       0.03499100
     3  I          0.25000000       0.48988500       0.34955600
     4  I          0.25000000       0.01011500       0.34955600
     5  I          0.75000000      -0.01011500       0.65044400
     6  I          0.75000000       0.51011500       0.65044400
     7  N          0.25000000       0.37766000       0.74947000
     8  N          0.25000000       0.12234000       0.74947000
     9  N          0.75000000       0.87766000       0.25053000
    10  N          0.75000000       0.62234000       0.25053000
    11  H          0.25000000       0.47730000       0.78911000
    12  H          0.25000000       0.02270000       0.78911000
    13  H          0.75000000       0.97730000       0.21089000
    14  H          0.75000000       0.52270000       0.21089000
    15  C          0.25000000       0.25000000       0.85531300
    16  C          0.75000000       0.75000000       0.14468700
    17  H          0.25000000       0.25000000      -0.01600000
    18  H          0.75000000       0.75000000       0.01600000
    19  C          0.25000000       0.32957000       0.56728000
    20  C          0.25000000       0.17043000       0.56728000
    21  C          0.75000000       0.82957000       0.43272000
    22  C          0.75000000       0.67043000       0.43272000
