data_YOXGOH
_symmetry_space_group_name_H-M    'P1'
_symmetry_Int_Tables_number       1
loop_
_symmetry_equiv_pos_site_id
_symmetry_equiv_pos_as_xyz
1 x,y,z
_cell_length_a                   11.9208
_cell_length_b                   6.8855
_cell_length_c                   6.4573
_cell_angle_alpha                90.0
_cell_angle_beta                 112.145
_cell_angle_gamma                90.0
loop_
_atom_site_label
_atom_site_type_symbol
_atom_site_fract_x
_atom_site_fract_y
_atom_site_fract_z
     1  Br         0.17611000       0.00000000       0.53812000
     2  Br         0.82389000      -0.00000000       0.46188000
     3  Br         0.67611000       0.50000000       0.53812000
     4  Br         0.32389000       0.50000000       0.46188000
     5  C          0.10628000       0.00000000       0.21020000
     6  C          0.89372000       0.00000000       0.78980000
     7  C          0.60628000       0.50000000       0.21020000
     8  C          0.39372000       0.50000000       0.78980000
     9  C          0.03076000       0.18359000       0.12610000
    10  C          0.96924000       0.18359000       0.87390000
    11  C          0.53076000       0.68359000       0.12610000
    12  C          0.46924000       0.68359000       0.87390000
    13  C          0.96924000       0.81641000       0.87390000
    14  C          0.03076000       0.81641000       0.12610000
    15  C          0.46924000       0.31641000       0.87390000
    16  C          0.53076000       0.31641000       0.12610000
    17  C          0.21259000       0.00000000       0.14020000
    18  C          0.78741000       0.00000000       0.85980000
    19  C          0.71259000       0.50000000       0.14020000
    20  C          0.28741000       0.50000000       0.85980000
    21  N          0.29088000       0.00000000       0.08120000
    22  N          0.70912000       0.00000000       0.91880000
    23  N          0.79088000       0.50000000       0.08120000
    24  N          0.20912000       0.50000000       0.91880000
    25  H          0.97764000       0.19349000       0.23110000
    26  H          0.02236000       0.19349000       0.76890000
    27  H          0.47764000       0.69349000       0.23110000
    28  H          0.52236000       0.69349000       0.76890000
    29  H          0.02236000       0.80651000       0.76890000
    30  H          0.97764000       0.80651000       0.23110000
    31  H          0.52236000       0.30651000       0.76890000
    32  H          0.47764000       0.30651000       0.23110000
    33  H          0.08656000       0.31369000       0.16310000
    34  H          0.91344000       0.31369000       0.83690000
    35  H          0.58656000       0.81369000       0.16310000
    36  H          0.41344000       0.81369000       0.83690000
    37  H          0.91344000       0.68631000       0.83690000
    38  H          0.08656000       0.68631000       0.16310000
    39  H          0.41344000       0.18631000       0.83690000
    40  H          0.58656000       0.18631000       0.16310000
