data_ZALXUF
_symmetry_space_group_name_H-M    'P1'
_symmetry_Int_Tables_number       1
loop_
_symmetry_equiv_pos_site_id
_symmetry_equiv_pos_as_xyz
1 x,y,z
_cell_length_a                   7.03757
_cell_length_b                   8.3753
_cell_length_c                   8.8832
_cell_angle_alpha                90.0
_cell_angle_beta                 103.582
_cell_angle_gamma                90.0
loop_
_atom_site_label
_atom_site_type_symbol
_atom_site_fract_x
_atom_site_fract_y
_atom_site_fract_z
     1  Br         0.24355120       0.42096100       0.34541900
     2  Br         0.25644880       0.92096100       0.65458100
     3  Br         0.75644880       0.57903900       0.65458100
     4  Br         0.74355120       0.07903900       0.34541900
     5  S          0.29263000       0.53133000       0.68768230
     6  S          0.20737000       0.03133000       0.31231770
     7  S          0.70737000       0.46867000       0.31231770
     8  S          0.79263000       0.96867000       0.68768230
     9  S          0.16773000       0.31413000       0.65796240
    10  S          0.33227000       0.81413000       0.34203760
    11  S          0.83227000       0.68587000       0.34203760
    12  S          0.66773000       0.18587000       0.65796240
    13  N          0.30801300       0.54161000       0.86758000
    14  N          0.19198700       0.04161000       0.13242000
    15  N          0.69198700       0.45839000       0.13242000
    16  N          0.80801300       0.95839000       0.86758000
    17  N          0.15381200       0.29259000       0.83328000
    18  N          0.34618800       0.79259000       0.16672000
    19  N          0.84618800       0.70741000       0.16672000
    20  N          0.65381200       0.20741000       0.83328000
    21  C          0.23231500       0.41371200       0.92081100
    22  C          0.26768500       0.91371200       0.07918900
    23  C          0.76768500       0.58628800       0.07918900
    24  C          0.73231500       0.08628800       0.92081100
    25  H          0.23400000       0.40900000       0.02900000
    26  H          0.26600000       0.90900000       0.97100000
    27  H          0.76600000       0.59100000       0.97100000
    28  H          0.73400000       0.09100000       0.02900000
