data_ZEGSUZ01
_symmetry_space_group_name_H-M    'P1'
_symmetry_Int_Tables_number       1
loop_
_symmetry_equiv_pos_site_id
_symmetry_equiv_pos_as_xyz
1 x,y,z
_cell_length_a                   6.4622
_cell_length_b                   10.9213
_cell_length_c                   9.8432
_cell_angle_alpha                90.0
_cell_angle_beta                 90.0
_cell_angle_gamma                90.0
loop_
_atom_site_label
_atom_site_type_symbol
_atom_site_fract_x
_atom_site_fract_y
_atom_site_fract_z
     1  P          0.17633130       0.32744700       0.25000000
     2  P          0.67633130       0.17255300       0.75000000
     3  P          0.82366870       0.67255300       0.75000000
     4  P          0.32366870       0.82744700       0.25000000
     5  P          0.73321900       0.42840600       0.36353700
     6  P          0.23321900       0.07159400       0.63646300
     7  P          0.26678100       0.57159400       0.86353700
     8  P          0.76678100       0.92840600       0.13646300
     9  P          0.26678100       0.57159400       0.63646300
    10  P          0.76678100       0.92840600       0.36353700
    11  P          0.73321900       0.42840600       0.13646300
    12  P          0.23321900       0.07159400       0.86353700
    13  P          0.89542860       0.57584700       0.25000000
    14  P          0.39542860       0.92415300       0.75000000
    15  P          0.10457140       0.42415300       0.75000000
    16  P          0.60457140       0.07584700       0.25000000
    17  S          0.96959890       0.30599500       0.41256700
    18  S          0.46959890       0.19400500       0.58743300
    19  S          0.03040110       0.69400500       0.91256700
    20  S          0.53040110       0.80599500       0.08743300
    21  S          0.03040110       0.69400500       0.58743300
    22  S          0.53040110       0.80599500       0.41256700
    23  S          0.96959890       0.30599500       0.08743300
    24  S          0.46959890       0.19400500       0.91256700
    25  S          0.20314120       0.51809700       0.25000000
    26  S          0.70314120       0.98190300       0.75000000
    27  S          0.79685880       0.48190300       0.75000000
    28  S          0.29685880       0.01809700       0.25000000
