data_ZOFPAL
_symmetry_space_group_name_H-M    'P1'
_symmetry_Int_Tables_number       1
loop_
_symmetry_equiv_pos_site_id
_symmetry_equiv_pos_as_xyz
1 x,y,z
_cell_length_a                   8.2826
_cell_length_b                   5.1403
_cell_length_c                   8.2685
_cell_angle_alpha                90.0
_cell_angle_beta                 90.0
_cell_angle_gamma                90.0
loop_
_atom_site_label
_atom_site_type_symbol
_atom_site_fract_x
_atom_site_fract_y
_atom_site_fract_z
     1  C         -0.00000000       0.91276000       0.75000000
     2  C          0.50000000       0.58724000       0.25000000
     3  C         -0.00000000       0.08724000       0.25000000
     4  C          0.50000000       0.41276000       0.75000000
     5  F          0.09112000       0.07592000       0.65741000
     6  F          0.40888000       0.42408000       0.15741000
     7  F          0.59112000       0.42408000       0.34259000
     8  F          0.90888000       0.07592000       0.84259000
     9  F          0.90888000       0.92408000       0.34259000
    10  F          0.59112000       0.57592000       0.84259000
    11  F          0.40888000       0.57592000       0.65741000
    12  F          0.09112000       0.92408000       0.15741000
    13  C          0.94458000       0.66107000       0.69502000
    14  C          0.55542000       0.83893000       0.19502000
    15  C          0.44458000       0.83893000       0.30498000
    16  C          0.05542000       0.66107000       0.80498000
    17  C          0.05542000       0.33893000       0.30498000
    18  C          0.44458000       0.16107000       0.80498000
    19  C          0.55542000       0.16107000       0.69502000
    20  C          0.94458000       0.33893000       0.19502000
    21  F          0.84749000       0.53528000       0.59771000
    22  F          0.65251000       0.96472000       0.09771000
    23  F          0.34749000       0.96472000       0.40229000
    24  F          0.15251000       0.53528000       0.90229000
    25  F          0.15251000       0.46472000       0.40229000
    26  F          0.34749000       0.03528000       0.90229000
    27  F          0.65251000       0.03528000       0.59771000
    28  F          0.84749000       0.46472000       0.09771000
