data_ZUHQIC
_symmetry_space_group_name_H-M    'P1'
_symmetry_Int_Tables_number       1
loop_
_symmetry_equiv_pos_site_id
_symmetry_equiv_pos_as_xyz
1 x,y,z
_cell_length_a                   10.2462
_cell_length_b                   14.4872
_cell_length_c                   4.25365
_cell_angle_alpha                90.0
_cell_angle_beta                 90.231
_cell_angle_gamma                90.0
loop_
_atom_site_label
_atom_site_type_symbol
_atom_site_fract_x
_atom_site_fract_y
_atom_site_fract_z
     1  I          0.69029700       0.00000000       0.40232000
     2  I          0.30970300      -0.00000000       0.59768000
     3  I          0.19029700       0.50000000       0.40232000
     4  I          0.80970300       0.50000000       0.59768000
     5  C          0.93956000       0.09245000       0.08820000
     6  C          0.06044000       0.09245000       0.91180000
     7  C          0.43956000       0.59245000       0.08820000
     8  C          0.56044000       0.59245000       0.91180000
     9  C          0.06044000       0.90755000       0.91180000
    10  C          0.93956000       0.90755000       0.08820000
    11  C          0.56044000       0.40755000       0.91180000
    12  C          0.43956000       0.40755000       0.08820000
    13  C          0.88547000       0.17966000       0.17220000
    14  C          0.11453000       0.17966000       0.82780000
    15  C          0.38547000       0.67966000       0.17220000
    16  C          0.61453000       0.67966000       0.82780000
    17  C          0.11453000       0.82034000       0.82780000
    18  C          0.88547000       0.82034000       0.17220000
    19  C          0.61453000       0.32034000       0.82780000
    20  C          0.38547000       0.32034000       0.17220000
    21  C          0.94207000       0.26215000       0.08620000
    22  C          0.05793000       0.26215000       0.91380000
    23  C          0.44207000       0.76215000       0.08620000
    24  C          0.55793000       0.76215000       0.91380000
    25  C          0.05793000       0.73785000       0.91380000
    26  C          0.94207000       0.73785000       0.08620000
    27  C          0.55793000       0.23785000       0.91380000
    28  C          0.44207000       0.23785000       0.08620000
    29  B          0.87910000       0.00000000       0.17030000
    30  B          0.12090000      -0.00000000       0.82970000
    31  B          0.37910000       0.50000000       0.17030000
    32  B          0.62090000       0.50000000       0.82970000
    33  H          0.78080000       0.20470000       0.32200000
    34  H          0.21920000       0.20470000       0.67800000
    35  H          0.28080000       0.70470000       0.32200000
    36  H          0.71920000       0.70470000       0.67800000
    37  H          0.21920000       0.79530000       0.67800000
    38  H          0.78080000       0.79530000       0.32200000
    39  H          0.71920000       0.29530000       0.67800000
    40  H          0.28080000       0.29530000       0.32200000
    41  H          0.87380000       0.32570000       0.12200000
    42  H          0.12620000       0.32570000       0.87800000
    43  H          0.37380000       0.82570000       0.12200000
    44  H          0.62620000       0.82570000       0.87800000
    45  H          0.12620000       0.67430000       0.87800000
    46  H          0.87380000       0.67430000       0.12200000
    47  H          0.62620000       0.17430000       0.87800000
    48  H          0.37380000       0.17430000       0.12200000
    49  H          0.12780000       0.32570000       0.87800000
    50  H          0.87220000       0.32570000       0.12200000
    51  H          0.62780000       0.82570000       0.87800000
    52  H          0.37220000       0.82570000       0.12200000
    53  H          0.87220000       0.67430000       0.12200000
    54  H          0.12780000       0.67430000       0.87800000
    55  H          0.37220000       0.17430000       0.12200000
    56  H          0.62780000       0.17430000       0.87800000
    57  H          0.22080000       0.20470000       0.67800000
    58  H          0.77920000       0.20470000       0.32200000
    59  H          0.72080000       0.70470000       0.67800000
    60  H          0.27920000       0.70470000       0.32200000
    61  H          0.77920000       0.79530000       0.32200000
    62  H          0.22080000       0.79530000       0.67800000
    63  H          0.27920000       0.29530000       0.32200000
    64  H          0.72080000       0.29530000       0.67800000
