
#######################################################################
#
#                 Cambridge Crystallographic Data Centre
#                                CCDC 
#
#######################################################################
#
# If this CIF has been generated from an entry in the Cambridge 
# Structural Database, then it will include bibliographic, chemical, 
# crystal, experimental, refinement or atomic coordinate data resulting 
# from the CCDC's data processing and validation procedures.
#
#######################################################################

data_ZZZAVM02
_chemical_formula_moiety         'C6 F4 I2'
_chemical_name_systematic        1,2,4,5-Tetrafluoro-3,6-diiodobenzene
_symmetry_cell_setting           monoclinic
_symmetry_space_group_name_H-M   'P 21/c'
_symmetry_Int_Tables_number      14
_space_group_name_Hall           '-P 2ybc'
loop_
_symmetry_equiv_pos_site_id
_symmetry_equiv_pos_as_xyz
1 x,y,z
2 -x,1/2+y,1/2-z
3 -x,-y,-z
4 x,1/2-y,1/2+z
_cell_length_a                   6.2187(3)
_cell_length_b                   11.6168(7)
_cell_length_c                   5.7876(5)
_cell_angle_alpha                90
_cell_angle_beta                 93.61(3)
_cell_angle_gamma                90
_cell_volume                     417.275
_exptl_crystal_colour            colorless
_exptl_crystal_description       prism
_cell_formula_units_Z            2
loop_
_atom_site_label
_atom_site_type_symbol
_atom_site_fract_x
_atom_site_fract_y
_atom_site_fract_z
_atom_site_U_iso_or_equiv
_atom_site_thermal_displace_type
I1 I 0.77869(4) 0.36607(2) 0.07136(4) 0.0331 Uani
F1 F 0.1230(4) 0.4072(2) 0.6249(4) 0.0342 Uani
F2 F 0.3367(4) 0.3054(2) 0.2966(5) 0.0364 Uani
C1 C 0.4211(6) 0.4011(4) 0.3970(7) 0.0281 Uani
C2 C 0.3094(6) 0.4542(4) 0.5649(6) 0.0267 Uani
C3 C 0.6128(6) 0.4452(3) 0.3287(6) 0.0263 Uani
I1B I 0.22131(4) 0.63393(2) 0.92864(4) 0.0331 Uani
F1B F 0.8770(4) 0.5928(2) 0.3751(4) 0.0342 Uani
F2B F 0.6633(4) 0.6946(2) 0.7034(5) 0.0364 Uani
C1B C 0.5789(6) 0.5989(4) 0.6030(7) 0.0281 Uani
C2B C 0.6906(6) 0.5458(4) 0.4351(6) 0.0267 Uani
C3B C 0.3872(6) 0.5548(3) 0.6713(6) 0.0263 Uani
loop_
_atom_site_aniso_label
_atom_site_aniso_U_11
_atom_site_aniso_U_22
_atom_site_aniso_U_33
_atom_site_aniso_U_23
_atom_site_aniso_U_13
_atom_site_aniso_U_12
I1 0.03294(18) 0.0368(2) 0.03028(18) -0.00145(9) 0.00853(12) 0.00216(10)
F1 0.0258(11) 0.0351(13) 0.0425(13) 0.0000(11) 0.0094(10) -0.0033(10)
F2 0.0326(13) 0.0334(14) 0.0432(13) -0.0092(10) 0.0030(10) -0.0048(10)
C1 0.0257(18) 0.0267(18) 0.0314(19) 0.0001(15) -0.0016(14) 0.0001(15)
C2 0.0206(16) 0.030(2) 0.0295(18) 0.0048(14) 0.0015(13) -0.0037(14)
C3 0.0249(17) 0.0265(18) 0.0278(17) 0.0013(14) 0.0046(13) 0.0042(14)
I1B 0.03294 0.0368 0.03028 -0.00145 0.00853 0.00216
F1B 0.0258 0.0351 0.0425 0 0.0094 -0.0033
F2B 0.0326 0.0334 0.0432 -0.0092 0.003 -0.0048
C1B 0.0257 0.0267 0.0314 0.0001 -0.0016 0.0001
C2B 0.0206 0.03 0.0295 0.0048 0.0015 -0.0037
C3B 0.0249 0.0265 0.0278 0.0013 0.0046 0.0042
loop_
_geom_bond_atom_site_label_1
_geom_bond_atom_site_label_2
_geom_bond_site_symmetry_1
_geom_bond_site_symmetry_2
I1 C3 1_555 1_555
F1 C2 1_555 1_555
F2 C1 1_555 1_555
C1 C2 1_555 1_555
C2 C3B 1_555 1_555
C3 C1 1_555 1_555
I1B C3B 1_555 1_555
F1B C2B 1_555 1_555
F2B C1B 1_555 1_555
C1B C2B 1_555 1_555
C2B C3 1_555 1_555
C3B C1B 1_555 1_555

#END
