data_ZZZFGA01
_symmetry_space_group_name_H-M    'P1'
_symmetry_Int_Tables_number       1
loop_
_symmetry_equiv_pos_site_id
_symmetry_equiv_pos_as_xyz
1 x,y,z
_cell_length_a                   6.7672
_cell_length_b                   5.329017
_cell_length_c                   14.3275
_cell_angle_alpha                90.0
_cell_angle_beta                 90.0
_cell_angle_gamma                90.0
loop_
_atom_site_label
_atom_site_type_symbol
_atom_site_fract_x
_atom_site_fract_y
_atom_site_fract_z
     1  I          0.50000000       0.26844000       0.34786170
     2  I          0.50000000       0.23156000       0.84786170
     3  I          0.50000000       0.76844000       0.15213830
     4  I          0.50000000       0.73156000       0.65213830
     5  I         -0.00000000       0.76844000       0.34786170
     6  I          0.00000000       0.73156000       0.84786170
     7  I          0.00000000       0.26844000       0.15213830
     8  I         -0.00000000       0.23156000       0.65213830
     9  C          0.50000000       0.53570000       0.45830000
    10  C          0.50000000       0.96430000       0.95830000
    11  C          0.50000000       0.03570000       0.04170000
    12  C          0.50000000       0.46430000       0.54170000
    13  C         -0.00000000       0.03570000       0.45830000
    14  C          0.00000000       0.46430000       0.95830000
    15  C          0.00000000       0.53570000       0.04170000
    16  C         -0.00000000       0.96430000       0.54170000
    17  H          0.50000000       0.70860000       0.44340000
    18  H          0.50000000       0.79140000       0.94340000
    19  H          0.50000000       0.20860000       0.05660000
    20  H          0.50000000       0.29140000       0.55660000
    21  H         -0.00000000       0.20860000       0.44340000
    22  H         -0.00000000       0.29140000       0.94340000
    23  H          0.00000000       0.70860000       0.05660000
    24  H         -0.00000000       0.79140000       0.55660000
