data_ZZZFHE01
_symmetry_space_group_name_H-M    'P1'
_symmetry_Int_Tables_number       1
loop_
_symmetry_equiv_pos_site_id
_symmetry_equiv_pos_as_xyz
1 x,y,z
_cell_length_a                   4.60517
_cell_length_b                   12.9392
_cell_length_c                   4.73187
_cell_angle_alpha                90.0
_cell_angle_beta                 104.6363
_cell_angle_gamma                90.0
loop_
_atom_site_label
_atom_site_type_symbol
_atom_site_fract_x
_atom_site_fract_y
_atom_site_fract_z
     1  I          0.16648600       0.85166119       0.28227500
     2  I          0.33351400       0.35166119       0.21772500
     3  I          0.83351400       0.14833881       0.71772500
     4  I          0.66648600       0.64833881       0.78227500
     5  C          0.47691000       0.95263000       0.57918000
     6  C          0.02309000       0.45263000       0.92082000
     7  C          0.52309000       0.04737000       0.42082000
     8  C         -0.02309000       0.54737000       0.07918000
     9  H          0.39620000       0.97060000       0.74330000
    10  H          0.10380000       0.47060000       0.75670000
    11  H          0.60380000       0.02940000       0.25670000
    12  H          0.89620000       0.52940000       0.24330000
    13  H          0.66690000       0.91750000       0.65370000
    14  H          0.83310000       0.41750000       0.84630000
    15  H          0.33310000       0.08250000       0.34630000
    16  H          0.16690000       0.58250000       0.15370000
