
#######################################################################
#
#                 Cambridge Crystallographic Data Centre
#                                CCDC 
#
#######################################################################
#
# If this CIF has been generated from an entry in the Cambridge 
# Structural Database, then it will include bibliographic, chemical, 
# crystal, experimental, refinement or atomic coordinate data resulting 
# from the CCDC's data processing and validation procedures.
#
#######################################################################

data_ZZZIZA01
_chemical_formula_moiety         'C8 H4 N2'
_chemical_name_systematic        p-Di-isocyanobenzene
_symmetry_cell_setting           monoclinic
_symmetry_space_group_name_H-M   'A 2/m'
_symmetry_Int_Tables_number      12
_space_group_name_Hall           '-A 2y'
loop_
_symmetry_equiv_pos_site_id
_symmetry_equiv_pos_as_xyz
1 x,y,z
2 x,1/2+y,1/2+z
3 -x,y,-z
4 -x,1/2+y,1/2-z
5 -x,-y,-z
6 -x,1/2-y,1/2-z
7 x,-y,z
8 x,1/2-y,1/2+z
_cell_length_a                   4.772(3)
_cell_length_b                   7.232(3)
_cell_length_c                   9.887(5)
_cell_angle_alpha                90
_cell_angle_beta                 98.28(5)
_cell_angle_gamma                90
_cell_volume                     337.655
_exptl_crystal_colour            colorless
_chemical_melting_point          165-166deg.C(dec.)
_cell_formula_units_Z            2
loop_
_atom_site_label
_atom_site_type_symbol
_atom_site_fract_x
_atom_site_fract_y
_atom_site_fract_z
C1 C 0.8314(3) 0.0000 0.1005(2)
C2 C 0.9149(2) 0.1676(1) 0.0507(1)
N1 N 0.6609(3) 0.0000 0.2044(1)
C3 C 0.5193(4) 0.0000 0.2899(2)
H1 H 0.853(3) 0.280(2) 0.089(1)
C2F C 0.9149(2) -0.1676(1) 0.0507(1)
C2B C 1.0851(2) 0.1676(1) -0.0507(1)
C2D C 1.0851(2) -0.1676(1) -0.0507(1)
H1F H 0.853(3) -0.280(2) 0.089(1)
C1D C 1.1686(3) 0.0000 -0.1005(2)
H1B H 1.147(3) 0.280(2) -0.089(1)
H1D H 1.147(3) -0.280(2) -0.089(1)
N1D N 1.3391(3) 0.0000 -0.2044(1)
C3D C 1.4807(4) 0.0000 -0.2899(2)
loop_
_geom_bond_atom_site_label_1
_geom_bond_atom_site_label_2
_geom_bond_site_symmetry_1
_geom_bond_site_symmetry_2
C1 C2 1_555 1_555
C2 H1 1_555 1_555
N1 C1 1_555 1_555
C3 N1 1_555 1_555
C2F C1 1_555 1_555
C2B C2 1_555 1_555
C2D C2F 1_555 1_555
H1F C2F 1_555 1_555
C1D C2B 1_555 1_555
H1B C2B 1_555 1_555
H1D C2D 1_555 1_555
N1D C1D 1_555 1_555
C3D N1D 1_555 1_555
C2D C1D 1_555 1_555

#END
