
#######################################################################
#
#                 Cambridge Crystallographic Data Centre
#                                CCDC 
#
#######################################################################
#
# If this CIF has been generated from an entry in the Cambridge 
# Structural Database, then it will include bibliographic, chemical, 
# crystal, experimental, refinement or atomic coordinate data resulting 
# from the CCDC's data processing and validation procedures.
#
#######################################################################

data_ZZZPRO07
_chemical_formula_moiety         'C6 H4 I2'
_chemical_name_systematic        1,4-Di-iodobenzene
_symmetry_cell_setting           orthorhombic
_symmetry_space_group_name_H-M   'P c c n'
_symmetry_Int_Tables_number      56
_space_group_name_Hall           '-P 2ab 2ac'
loop_
_symmetry_equiv_pos_site_id
_symmetry_equiv_pos_as_xyz
1 x,y,z
2 1/2-x,1/2-y,z
3 1/2+x,-y,1/2-z
4 -x,1/2+y,1/2-z
5 -x,-y,-z
6 1/2+x,1/2+y,-z
7 1/2-x,y,1/2+z
8 x,1/2-y,1/2+z
_cell_length_a                   17.0468(32)
_cell_length_b                   7.4370(12)
_cell_length_c                   6.1548(12)
_cell_angle_alpha                90
_cell_angle_beta                 90
_cell_angle_gamma                90
_cell_volume                     780.287
_cell_formula_units_Z            4
loop_
_atom_site_label
_atom_site_type_symbol
_atom_site_fract_x
_atom_site_fract_y
_atom_site_fract_z
I1 I 0.32988(3) 0.03859(10) 0.19322(12)
C1 C 0.43199(47) 0.01680(96) 0.3790(14)
C2 C 0.50315(50) 0.0724(11) 0.2946(13)
H1 H 0.50540(50) 0.1229(11) 0.1512(13)
C3 C 0.42897(48) -0.05547(93) 0.5846(16)
H2 H 0.37970(48) -0.09423(93) 0.6439(16)
C3D C 0.57103(48) 0.05547(93) 0.4154(16)
C1D C 0.56801(47) -0.01680(96) 0.6210(14)
I1D I 0.67012(3) -0.03859(10) 0.80678(12)
C2D C 0.49685(50) -0.0724(11) 0.7054(13)
H1D H 0.49460(50) -0.1229(11) 0.8488(13)
H2D H 0.62030(48) 0.09423(93) 0.3561(16)
loop_
_geom_bond_atom_site_label_1
_geom_bond_atom_site_label_2
_geom_bond_site_symmetry_1
_geom_bond_site_symmetry_2
I1 C1 1_555 1_555
C1 C2 1_555 1_555
C2 H1 1_555 1_555
C3 C1 1_555 1_555
H2 C3 1_555 1_555
C3D C2 1_555 1_555
C1D C3D 1_555 1_555
I1D C1D 1_555 1_555
C2D C3 1_555 1_555
H1D C2D 1_555 1_555
H2D C3D 1_555 1_555
C1D C2D 1_555 1_555

#END
