
#######################################################################
#
#                 Cambridge Crystallographic Data Centre
#                                CCDC 
#
#######################################################################
#
# If this CIF has been generated from an entry in the Cambridge 
# Structural Database, then it will include bibliographic, chemical, 
# crystal, experimental, refinement or atomic coordinate data resulting 
# from the CCDC's data processing and validation procedures.
#
#######################################################################

data_ZZZPRO05
_chemical_formula_moiety         'C6 H4 I2'
_chemical_name_systematic        1,4-Di-iodobenzene
_symmetry_cell_setting           orthorhombic
_symmetry_space_group_name_H-M   'P b c a'
_symmetry_Int_Tables_number      61
_space_group_name_Hall           '-P 2ac 2ab'
loop_
_symmetry_equiv_pos_site_id
_symmetry_equiv_pos_as_xyz
1 x,y,z
2 1/2-x,-y,1/2+z
3 1/2+x,1/2-y,-z
4 -x,1/2+y,1/2-z
5 -x,-y,-z
6 1/2+x,y,1/2-z
7 1/2-x,1/2+y,z
8 x,1/2-y,1/2+z
_cell_length_a                   16.9697(24)
_cell_length_b                   7.3242(11)
_cell_length_c                   6.1560(10)
_cell_angle_alpha                90
_cell_angle_beta                 90
_cell_angle_gamma                90
_cell_volume                     765.126
_cell_formula_units_Z            4
loop_
_atom_site_label
_atom_site_type_symbol
_atom_site_fract_x
_atom_site_fract_y
_atom_site_fract_z
I1 I 0.67091(2) 0.95998(6) 0.19498(6)
C1 C 0.56821(29) 0.98126(56) 0.38104(85)
C2 C 0.49735(35) 0.92857(70) 0.29286(72)
H1 H 0.49571(35) 0.87908(70) 0.14853(72)
C3 C 0.57161(30) 1.05320(61) 0.58935(85)
H2 H 0.62108(30) 1.09006(61) 0.65100(85)
C3D C 0.42839(30) 0.94680(61) 0.41065(85)
C1D C 0.43179(29) 1.01874(56) 0.61896(85)
I1D I 0.32909(2) 1.04002(6) 0.80502(6)
C2D C 0.50265(35) 1.07143(70) 0.70714(72)
H1D H 0.50429(35) 1.12092(70) 0.85147(72)
H2D H 0.37892(30) 0.90994(61) 0.34900(85)
loop_
_geom_bond_atom_site_label_1
_geom_bond_atom_site_label_2
_geom_bond_site_symmetry_1
_geom_bond_site_symmetry_2
I1 C1 1_555 1_555
C1 C2 1_555 1_555
C2 H1 1_555 1_555
C3 C1 1_555 1_555
H2 C3 1_555 1_555
C3D C2 1_555 1_555
C1D C3D 1_555 1_555
I1D C1D 1_555 1_555
C2D C3 1_555 1_555
H1D C2D 1_555 1_555
H2D C3D 1_555 1_555
C1D C2D 1_555 1_555

#END
